version 3
run Base-0-20260528-21:46:44-86862
attr configname Base
attr datetime 20260528-21:46:44
attr datetimef 20260528-214644
attr experiment Base
attr inifile omnetpp.ini
attr iterationvars ""
attr iterationvarsd ""
attr iterationvarsf ""
attr measurement ""
attr network simulations.ned.CampusNetwork
attr processid 86862
attr repetition 0
attr replication #0
attr resultdir results
attr runnumber 0
attr seedset 0
config description "–\xFF–∞–∑–æ–≤–∞—\xFF —\xFF–µ—\xFF—\xFF"
config *.numBranch1Hosts 15
config *.numBranch2Hosts 15
config *.branch1Host[*].app[*].messageLength 1000B
config *.branch1Host[*].app[*].sendInterval exponential(0.1s)
config *.branch2Host[*].app[*].messageLength 1000B
config *.branch2Host[*].app[*].sendInterval exponential(0.1s)
config network simulations.ned.CampusNetwork
config sim-time-limit 40s
config repeat 5
config seed-set 0
config **.crcMode "\"declared\""
config **.fcsMode "\"declared\""
config **.ipv4.checksum.typename InternetChecksum
config *.configurator.typename inet.networklayer.configurator.ipv4.Ipv4NetworkConfigurator
config *.configurator.addStaticRoutes true
config *.configurator.assignDisjunctSubnetAddresses true
config *.configurator.addDefaultRoutes true
config *.server1.numApps 1
config *.server1.app[*].typename UdpSink
config *.server1.app[*].localPort 5000
config *.server2.numApps 1
config *.server2.app[*].typename UdpSink
config *.server2.app[*].localPort 5001
config *.numBranch1Hosts 20
config *.numBranch2Hosts 20
config *.branch1Host[*].numApps 1
config *.branch1Host[*].app[*].typename UdpBasicApp
config *.branch1Host[*].app[*].destAddresses "\"server1\""
config *.branch1Host[*].app[*].destPort 5000
config *.branch1Host[*].app[*].startTime 0s
config *.branch1Host[*].app[*].stopTime 39s
config *.branch1Host[*].app[*].messageLength 1200B
config *.branch1Host[*].app[*].sendInterval exponential(0.07s)
config *.branch2Host[*].numApps 1
config *.branch2Host[*].app[*].typename UdpBasicApp
config *.branch2Host[*].app[*].destAddresses "\"server2\""
config *.branch2Host[*].app[*].destPort 5001
config *.branch2Host[*].app[*].startTime 0s
config *.branch2Host[*].app[*].stopTime 39s
config *.branch2Host[*].app[*].messageLength 1200B
config *.branch2Host[*].app[*].sendInterval exponential(0.07s)
config **.vector-recording true
config **.scalar-recording true
config **.endToEndDelay.vector-recording true
config *.scenarioManager.script "xml(\"<scenario><at t='10.0s'><shutdown module='mainRouter'/></at></scenario>\")"

par CampusNetwork.server1.ethg$o[0].channel typename "\"inet.node.ethernet.Eth1G\""
par CampusNetwork.server1.ethg$o[0].channel disabled false
attr mutable ""
par CampusNetwork.server1.ethg$o[0].channel delay 5e-08s
attr mutable ""
attr unit s
par CampusNetwork.server1.ethg$o[0].channel datarate 1e+09bps
attr mutable ""
attr unit bps
par CampusNetwork.server1.ethg$o[0].channel ber 0
attr mutable ""
par CampusNetwork.server1.ethg$o[0].channel per 0
attr mutable ""
par CampusNetwork.server1.ethg$o[0].channel enabledLineStyle "\"solid\""
par CampusNetwork.server1.ethg$o[0].channel disabledLineStyle "\"dashed\""
par CampusNetwork.server1.ethg$o[0].channel disabledIcon "\"status/cross\""
par CampusNetwork.server1.ethg$o[0].channel length 10m
attr unit m
par CampusNetwork.mainSwitch.ethg$o[0].channel typename "\"inet.node.ethernet.Eth1G\""
par CampusNetwork.mainSwitch.ethg$o[0].channel disabled false
attr mutable ""
par CampusNetwork.mainSwitch.ethg$o[0].channel delay 5e-08s
attr mutable ""
attr unit s
par CampusNetwork.mainSwitch.ethg$o[0].channel datarate 1e+09bps
attr mutable ""
attr unit bps
par CampusNetwork.mainSwitch.ethg$o[0].channel ber 0
attr mutable ""
par CampusNetwork.mainSwitch.ethg$o[0].channel per 0
attr mutable ""
par CampusNetwork.mainSwitch.ethg$o[0].channel enabledLineStyle "\"solid\""
par CampusNetwork.mainSwitch.ethg$o[0].channel disabledLineStyle "\"dashed\""
par CampusNetwork.mainSwitch.ethg$o[0].channel disabledIcon "\"status/cross\""
par CampusNetwork.mainSwitch.ethg$o[0].channel length 10m
attr unit m
par CampusNetwork.server2.ethg$o[0].channel typename "\"inet.node.ethernet.Eth1G\""
par CampusNetwork.server2.ethg$o[0].channel disabled false
attr mutable ""
par CampusNetwork.server2.ethg$o[0].channel delay 5e-08s
attr mutable ""
attr unit s
par CampusNetwork.server2.ethg$o[0].channel datarate 1e+09bps
attr mutable ""
attr unit bps
par CampusNetwork.server2.ethg$o[0].channel ber 0
attr mutable ""
par CampusNetwork.server2.ethg$o[0].channel per 0
attr mutable ""
par CampusNetwork.server2.ethg$o[0].channel enabledLineStyle "\"solid\""
par CampusNetwork.server2.ethg$o[0].channel disabledLineStyle "\"dashed\""
par CampusNetwork.server2.ethg$o[0].channel disabledIcon "\"status/cross\""
par CampusNetwork.server2.ethg$o[0].channel length 10m
attr unit m
par CampusNetwork.mainSwitch.ethg$o[1].channel typename "\"inet.node.ethernet.Eth1G\""
par CampusNetwork.mainSwitch.ethg$o[1].channel disabled false
attr mutable ""
par CampusNetwork.mainSwitch.ethg$o[1].channel delay 5e-08s
attr mutable ""
attr unit s
par CampusNetwork.mainSwitch.ethg$o[1].channel datarate 1e+09bps
attr mutable ""
attr unit bps
par CampusNetwork.mainSwitch.ethg$o[1].channel ber 0
attr mutable ""
par CampusNetwork.mainSwitch.ethg$o[1].channel per 0
attr mutable ""
par CampusNetwork.mainSwitch.ethg$o[1].channel enabledLineStyle "\"solid\""
par CampusNetwork.mainSwitch.ethg$o[1].channel disabledLineStyle "\"dashed\""
par CampusNetwork.mainSwitch.ethg$o[1].channel disabledIcon "\"status/cross\""
par CampusNetwork.mainSwitch.ethg$o[1].channel length 10m
attr unit m
par CampusNetwork.mainSwitch.ethg$o[2].channel typename "\"inet.node.ethernet.Eth1G\""
par CampusNetwork.mainSwitch.ethg$o[2].channel disabled false
attr mutable ""
par CampusNetwork.mainSwitch.ethg$o[2].channel delay 5e-08s
attr mutable ""
attr unit s
par CampusNetwork.mainSwitch.ethg$o[2].channel datarate 1e+09bps
attr mutable ""
attr unit bps
par CampusNetwork.mainSwitch.ethg$o[2].channel ber 0
attr mutable ""
par CampusNetwork.mainSwitch.ethg$o[2].channel per 0
attr mutable ""
par CampusNetwork.mainSwitch.ethg$o[2].channel enabledLineStyle "\"solid\""
par CampusNetwork.mainSwitch.ethg$o[2].channel disabledLineStyle "\"dashed\""
par CampusNetwork.mainSwitch.ethg$o[2].channel disabledIcon "\"status/cross\""
par CampusNetwork.mainSwitch.ethg$o[2].channel length 10m
attr unit m
par CampusNetwork.mainRouter.ethg$o[0].channel typename "\"inet.node.ethernet.Eth1G\""
par CampusNetwork.mainRouter.ethg$o[0].channel disabled false
attr mutable ""
par CampusNetwork.mainRouter.ethg$o[0].channel delay 5e-08s
attr mutable ""
attr unit s
par CampusNetwork.mainRouter.ethg$o[0].channel datarate 1e+09bps
attr mutable ""
attr unit bps
par CampusNetwork.mainRouter.ethg$o[0].channel ber 0
attr mutable ""
par CampusNetwork.mainRouter.ethg$o[0].channel per 0
attr mutable ""
par CampusNetwork.mainRouter.ethg$o[0].channel enabledLineStyle "\"solid\""
par CampusNetwork.mainRouter.ethg$o[0].channel disabledLineStyle "\"dashed\""
par CampusNetwork.mainRouter.ethg$o[0].channel disabledIcon "\"status/cross\""
par CampusNetwork.mainRouter.ethg$o[0].channel length 10m
attr unit m
par CampusNetwork.mainSwitch.ethg$o[3].channel typename "\"inet.node.ethernet.Eth100M\""
par CampusNetwork.mainSwitch.ethg$o[3].channel disabled false
attr mutable ""
par CampusNetwork.mainSwitch.ethg$o[3].channel delay 5e-08s
attr mutable ""
attr unit s
par CampusNetwork.mainSwitch.ethg$o[3].channel datarate 1e+08bps
attr mutable ""
attr unit bps
par CampusNetwork.mainSwitch.ethg$o[3].channel ber 0
attr mutable ""
par CampusNetwork.mainSwitch.ethg$o[3].channel per 0
attr mutable ""
par CampusNetwork.mainSwitch.ethg$o[3].channel enabledLineStyle "\"solid\""
par CampusNetwork.mainSwitch.ethg$o[3].channel disabledLineStyle "\"dashed\""
par CampusNetwork.mainSwitch.ethg$o[3].channel disabledIcon "\"status/cross\""
par CampusNetwork.mainSwitch.ethg$o[3].channel length 10m
attr unit m
par CampusNetwork.backupRouter.ethg$o[0].channel typename "\"inet.node.ethernet.Eth100M\""
par CampusNetwork.backupRouter.ethg$o[0].channel disabled false
attr mutable ""
par CampusNetwork.backupRouter.ethg$o[0].channel delay 5e-08s
attr mutable ""
attr unit s
par CampusNetwork.backupRouter.ethg$o[0].channel datarate 1e+08bps
attr mutable ""
attr unit bps
par CampusNetwork.backupRouter.ethg$o[0].channel ber 0
attr mutable ""
par CampusNetwork.backupRouter.ethg$o[0].channel per 0
attr mutable ""
par CampusNetwork.backupRouter.ethg$o[0].channel enabledLineStyle "\"solid\""
par CampusNetwork.backupRouter.ethg$o[0].channel disabledLineStyle "\"dashed\""
par CampusNetwork.backupRouter.ethg$o[0].channel disabledIcon "\"status/cross\""
par CampusNetwork.backupRouter.ethg$o[0].channel length 10m
attr unit m
par CampusNetwork.mainRouter.ethg$o[1].channel typename "\"inet.node.ethernet.Eth1G\""
par CampusNetwork.mainRouter.ethg$o[1].channel disabled false
attr mutable ""
par CampusNetwork.mainRouter.ethg$o[1].channel delay 5e-08s
attr mutable ""
attr unit s
par CampusNetwork.mainRouter.ethg$o[1].channel datarate 1e+09bps
attr mutable ""
attr unit bps
par CampusNetwork.mainRouter.ethg$o[1].channel ber 0
attr mutable ""
par CampusNetwork.mainRouter.ethg$o[1].channel per 0
attr mutable ""
par CampusNetwork.mainRouter.ethg$o[1].channel enabledLineStyle "\"solid\""
par CampusNetwork.mainRouter.ethg$o[1].channel disabledLineStyle "\"dashed\""
par CampusNetwork.mainRouter.ethg$o[1].channel disabledIcon "\"status/cross\""
par CampusNetwork.mainRouter.ethg$o[1].channel length 10m
attr unit m
par CampusNetwork.internet.ethg$o[0].channel typename "\"inet.node.ethernet.Eth1G\""
par CampusNetwork.internet.ethg$o[0].channel disabled false
attr mutable ""
par CampusNetwork.internet.ethg$o[0].channel delay 5e-08s
attr mutable ""
attr unit s
par CampusNetwork.internet.ethg$o[0].channel datarate 1e+09bps
attr mutable ""
attr unit bps
par CampusNetwork.internet.ethg$o[0].channel ber 0
attr mutable ""
par CampusNetwork.internet.ethg$o[0].channel per 0
attr mutable ""
par CampusNetwork.internet.ethg$o[0].channel enabledLineStyle "\"solid\""
par CampusNetwork.internet.ethg$o[0].channel disabledLineStyle "\"dashed\""
par CampusNetwork.internet.ethg$o[0].channel disabledIcon "\"status/cross\""
par CampusNetwork.internet.ethg$o[0].channel length 10m
attr unit m
par CampusNetwork.backupRouter.ethg$o[1].channel typename "\"inet.node.ethernet.Eth100M\""
par CampusNetwork.backupRouter.ethg$o[1].channel disabled false
attr mutable ""
par CampusNetwork.backupRouter.ethg$o[1].channel delay 5e-08s
attr mutable ""
attr unit s
par CampusNetwork.backupRouter.ethg$o[1].channel datarate 1e+08bps
attr mutable ""
attr unit bps
par CampusNetwork.backupRouter.ethg$o[1].channel ber 0
attr mutable ""
par CampusNetwork.backupRouter.ethg$o[1].channel per 0
attr mutable ""
par CampusNetwork.backupRouter.ethg$o[1].channel enabledLineStyle "\"solid\""
par CampusNetwork.backupRouter.ethg$o[1].channel disabledLineStyle "\"dashed\""
par CampusNetwork.backupRouter.ethg$o[1].channel disabledIcon "\"status/cross\""
par CampusNetwork.backupRouter.ethg$o[1].channel length 10m
attr unit m
par CampusNetwork.internet.ethg$o[1].channel typename "\"inet.node.ethernet.Eth100M\""
par CampusNetwork.internet.ethg$o[1].channel disabled false
attr mutable ""
par CampusNetwork.internet.ethg$o[1].channel delay 5e-08s
attr mutable ""
attr unit s
par CampusNetwork.internet.ethg$o[1].channel datarate 1e+08bps
attr mutable ""
attr unit bps
par CampusNetwork.internet.ethg$o[1].channel ber 0
attr mutable ""
par CampusNetwork.internet.ethg$o[1].channel per 0
attr mutable ""
par CampusNetwork.internet.ethg$o[1].channel enabledLineStyle "\"solid\""
par CampusNetwork.internet.ethg$o[1].channel disabledLineStyle "\"dashed\""
par CampusNetwork.internet.ethg$o[1].channel disabledIcon "\"status/cross\""
par CampusNetwork.internet.ethg$o[1].channel length 10m
attr unit m
par CampusNetwork.branch1Router.ethg$o[0].channel typename "\"inet.node.ethernet.Eth1G\""
par CampusNetwork.branch1Router.ethg$o[0].channel disabled false
attr mutable ""
par CampusNetwork.branch1Router.ethg$o[0].channel delay 5e-08s
attr mutable ""
attr unit s
par CampusNetwork.branch1Router.ethg$o[0].channel datarate 1e+09bps
attr mutable ""
attr unit bps
par CampusNetwork.branch1Router.ethg$o[0].channel ber 0
attr mutable ""
par CampusNetwork.branch1Router.ethg$o[0].channel per 0
attr mutable ""
par CampusNetwork.branch1Router.ethg$o[0].channel enabledLineStyle "\"solid\""
par CampusNetwork.branch1Router.ethg$o[0].channel disabledLineStyle "\"dashed\""
par CampusNetwork.branch1Router.ethg$o[0].channel disabledIcon "\"status/cross\""
par CampusNetwork.branch1Router.ethg$o[0].channel length 10m
attr unit m
par CampusNetwork.internet.ethg$o[2].channel typename "\"inet.node.ethernet.Eth1G\""
par CampusNetwork.internet.ethg$o[2].channel disabled false
attr mutable ""
par CampusNetwork.internet.ethg$o[2].channel delay 5e-08s
attr mutable ""
attr unit s
par CampusNetwork.internet.ethg$o[2].channel datarate 1e+09bps
attr mutable ""
attr unit bps
par CampusNetwork.internet.ethg$o[2].channel ber 0
attr mutable ""
par CampusNetwork.internet.ethg$o[2].channel per 0
attr mutable ""
par CampusNetwork.internet.ethg$o[2].channel enabledLineStyle "\"solid\""
par CampusNetwork.internet.ethg$o[2].channel disabledLineStyle "\"dashed\""
par CampusNetwork.internet.ethg$o[2].channel disabledIcon "\"status/cross\""
par CampusNetwork.internet.ethg$o[2].channel length 10m
attr unit m
par CampusNetwork.branch1Switch.ethg$o[0].channel typename "\"inet.node.ethernet.Eth100M\""
par CampusNetwork.branch1Switch.ethg$o[0].channel disabled false
attr mutable ""
par CampusNetwork.branch1Switch.ethg$o[0].channel delay 5e-08s
attr mutable ""
attr unit s
par CampusNetwork.branch1Switch.ethg$o[0].channel datarate 1e+08bps
attr mutable ""
attr unit bps
par CampusNetwork.branch1Switch.ethg$o[0].channel ber 0
attr mutable ""
par CampusNetwork.branch1Switch.ethg$o[0].channel per 0
attr mutable ""
par CampusNetwork.branch1Switch.ethg$o[0].channel enabledLineStyle "\"solid\""
par CampusNetwork.branch1Switch.ethg$o[0].channel disabledLineStyle "\"dashed\""
par CampusNetwork.branch1Switch.ethg$o[0].channel disabledIcon "\"status/cross\""
par CampusNetwork.branch1Switch.ethg$o[0].channel length 10m
attr unit m
par CampusNetwork.branch1Router.ethg$o[1].channel typename "\"inet.node.ethernet.Eth100M\""
par CampusNetwork.branch1Router.ethg$o[1].channel disabled false
attr mutable ""
par CampusNetwork.branch1Router.ethg$o[1].channel delay 5e-08s
attr mutable ""
attr unit s
par CampusNetwork.branch1Router.ethg$o[1].channel datarate 1e+08bps
attr mutable ""
attr unit bps
par CampusNetwork.branch1Router.ethg$o[1].channel ber 0
attr mutable ""
par CampusNetwork.branch1Router.ethg$o[1].channel per 0
attr mutable ""
par CampusNetwork.branch1Router.ethg$o[1].channel enabledLineStyle "\"solid\""
par CampusNetwork.branch1Router.ethg$o[1].channel disabledLineStyle "\"dashed\""
par CampusNetwork.branch1Router.ethg$o[1].channel disabledIcon "\"status/cross\""
par CampusNetwork.branch1Router.ethg$o[1].channel length 10m
attr unit m
par CampusNetwork.branch1Host[0].ethg$o[0].channel typename "\"inet.node.ethernet.Eth100M\""
par CampusNetwork.branch1Host[0].ethg$o[0].channel disabled false
attr mutable ""
par CampusNetwork.branch1Host[0].ethg$o[0].channel delay 5e-08s
attr mutable ""
attr unit s
par CampusNetwork.branch1Host[0].ethg$o[0].channel datarate 1e+08bps
attr mutable ""
attr unit bps
par CampusNetwork.branch1Host[0].ethg$o[0].channel ber 0
attr mutable ""
par CampusNetwork.branch1Host[0].ethg$o[0].channel per 0
attr mutable ""
par CampusNetwork.branch1Host[0].ethg$o[0].channel enabledLineStyle "\"solid\""
par CampusNetwork.branch1Host[0].ethg$o[0].channel disabledLineStyle "\"dashed\""
par CampusNetwork.branch1Host[0].ethg$o[0].channel disabledIcon "\"status/cross\""
par CampusNetwork.branch1Host[0].ethg$o[0].channel length 10m
attr unit m
par CampusNetwork.branch1Switch.ethg$o[1].channel typename "\"inet.node.ethernet.Eth100M\""
par CampusNetwork.branch1Switch.ethg$o[1].channel disabled false
attr mutable ""
par CampusNetwork.branch1Switch.ethg$o[1].channel delay 5e-08s
attr mutable ""
attr unit s
par CampusNetwork.branch1Switch.ethg$o[1].channel datarate 1e+08bps
attr mutable ""
attr unit bps
par CampusNetwork.branch1Switch.ethg$o[1].channel ber 0
attr mutable ""
par CampusNetwork.branch1Switch.ethg$o[1].channel per 0
attr mutable ""
par CampusNetwork.branch1Switch.ethg$o[1].channel enabledLineStyle "\"solid\""
par CampusNetwork.branch1Switch.ethg$o[1].channel disabledLineStyle "\"dashed\""
par CampusNetwork.branch1Switch.ethg$o[1].channel disabledIcon "\"status/cross\""
par CampusNetwork.branch1Switch.ethg$o[1].channel length 10m
attr unit m
par CampusNetwork.branch1Host[1].ethg$o[0].channel typename "\"inet.node.ethernet.Eth100M\""
par CampusNetwork.branch1Host[1].ethg$o[0].channel disabled false
attr mutable ""
par CampusNetwork.branch1Host[1].ethg$o[0].channel delay 5e-08s
attr mutable ""
attr unit s
par CampusNetwork.branch1Host[1].ethg$o[0].channel datarate 1e+08bps
attr mutable ""
attr unit bps
par CampusNetwork.branch1Host[1].ethg$o[0].channel ber 0
attr mutable ""
par CampusNetwork.branch1Host[1].ethg$o[0].channel per 0
attr mutable ""
par CampusNetwork.branch1Host[1].ethg$o[0].channel enabledLineStyle "\"solid\""
par CampusNetwork.branch1Host[1].ethg$o[0].channel disabledLineStyle "\"dashed\""
par CampusNetwork.branch1Host[1].ethg$o[0].channel disabledIcon "\"status/cross\""
par CampusNetwork.branch1Host[1].ethg$o[0].channel length 10m
attr unit m
par CampusNetwork.branch1Switch.ethg$o[2].channel typename "\"inet.node.ethernet.Eth100M\""
par CampusNetwork.branch1Switch.ethg$o[2].channel disabled false
attr mutable ""
par CampusNetwork.branch1Switch.ethg$o[2].channel delay 5e-08s
attr mutable ""
attr unit s
par CampusNetwork.branch1Switch.ethg$o[2].channel datarate 1e+08bps
attr mutable ""
attr unit bps
par CampusNetwork.branch1Switch.ethg$o[2].channel ber 0
attr mutable ""
par CampusNetwork.branch1Switch.ethg$o[2].channel per 0
attr mutable ""
par CampusNetwork.branch1Switch.ethg$o[2].channel enabledLineStyle "\"solid\""
par CampusNetwork.branch1Switch.ethg$o[2].channel disabledLineStyle "\"dashed\""
par CampusNetwork.branch1Switch.ethg$o[2].channel disabledIcon "\"status/cross\""
par CampusNetwork.branch1Switch.ethg$o[2].channel length 10m
attr unit m
par CampusNetwork.branch1Host[2].ethg$o[0].channel typename "\"inet.node.ethernet.Eth100M\""
par CampusNetwork.branch1Host[2].ethg$o[0].channel disabled false
attr mutable ""
par CampusNetwork.branch1Host[2].ethg$o[0].channel delay 5e-08s
attr mutable ""
attr unit s
par CampusNetwork.branch1Host[2].ethg$o[0].channel datarate 1e+08bps
attr mutable ""
attr unit bps
par CampusNetwork.branch1Host[2].ethg$o[0].channel ber 0
attr mutable ""
par CampusNetwork.branch1Host[2].ethg$o[0].channel per 0
attr mutable ""
par CampusNetwork.branch1Host[2].ethg$o[0].channel enabledLineStyle "\"solid\""
par CampusNetwork.branch1Host[2].ethg$o[0].channel disabledLineStyle "\"dashed\""
par CampusNetwork.branch1Host[2].ethg$o[0].channel disabledIcon "\"status/cross\""
par CampusNetwork.branch1Host[2].ethg$o[0].channel length 10m
attr unit m
par CampusNetwork.branch1Switch.ethg$o[3].channel typename "\"inet.node.ethernet.Eth100M\""
par CampusNetwork.branch1Switch.ethg$o[3].channel disabled false
attr mutable ""
par CampusNetwork.branch1Switch.ethg$o[3].channel delay 5e-08s
attr mutable ""
attr unit s
par CampusNetwork.branch1Switch.ethg$o[3].channel datarate 1e+08bps
attr mutable ""
attr unit bps
par CampusNetwork.branch1Switch.ethg$o[3].channel ber 0
attr mutable ""
par CampusNetwork.branch1Switch.ethg$o[3].channel per 0
attr mutable ""
par CampusNetwork.branch1Switch.ethg$o[3].channel enabledLineStyle "\"solid\""
par CampusNetwork.branch1Switch.ethg$o[3].channel disabledLineStyle "\"dashed\""
par CampusNetwork.branch1Switch.ethg$o[3].channel disabledIcon "\"status/cross\""
par CampusNetwork.branch1Switch.ethg$o[3].channel length 10m
attr unit m
par CampusNetwork.branch1Host[3].ethg$o[0].channel typename "\"inet.node.ethernet.Eth100M\""
par CampusNetwork.branch1Host[3].ethg$o[0].channel disabled false
attr mutable ""
par CampusNetwork.branch1Host[3].ethg$o[0].channel delay 5e-08s
attr mutable ""
attr unit s
par CampusNetwork.branch1Host[3].ethg$o[0].channel datarate 1e+08bps
attr mutable ""
attr unit bps
par CampusNetwork.branch1Host[3].ethg$o[0].channel ber 0
attr mutable ""
par CampusNetwork.branch1Host[3].ethg$o[0].channel per 0
attr mutable ""
par CampusNetwork.branch1Host[3].ethg$o[0].channel enabledLineStyle "\"solid\""
par CampusNetwork.branch1Host[3].ethg$o[0].channel disabledLineStyle "\"dashed\""
par CampusNetwork.branch1Host[3].ethg$o[0].channel disabledIcon "\"status/cross\""
par CampusNetwork.branch1Host[3].ethg$o[0].channel length 10m
attr unit m
par CampusNetwork.branch1Switch.ethg$o[4].channel typename "\"inet.node.ethernet.Eth100M\""
par CampusNetwork.branch1Switch.ethg$o[4].channel disabled false
attr mutable ""
par CampusNetwork.branch1Switch.ethg$o[4].channel delay 5e-08s
attr mutable ""
attr unit s
par CampusNetwork.branch1Switch.ethg$o[4].channel datarate 1e+08bps
attr mutable ""
attr unit bps
par CampusNetwork.branch1Switch.ethg$o[4].channel ber 0
attr mutable ""
par CampusNetwork.branch1Switch.ethg$o[4].channel per 0
attr mutable ""
par CampusNetwork.branch1Switch.ethg$o[4].channel enabledLineStyle "\"solid\""
par CampusNetwork.branch1Switch.ethg$o[4].channel disabledLineStyle "\"dashed\""
par CampusNetwork.branch1Switch.ethg$o[4].channel disabledIcon "\"status/cross\""
par CampusNetwork.branch1Switch.ethg$o[4].channel length 10m
attr unit m
par CampusNetwork.branch1Host[4].ethg$o[0].channel typename "\"inet.node.ethernet.Eth100M\""
par CampusNetwork.branch1Host[4].ethg$o[0].channel disabled false
attr mutable ""
par CampusNetwork.branch1Host[4].ethg$o[0].channel delay 5e-08s
attr mutable ""
attr unit s
par CampusNetwork.branch1Host[4].ethg$o[0].channel datarate 1e+08bps
attr mutable ""
attr unit bps
par CampusNetwork.branch1Host[4].ethg$o[0].channel ber 0
attr mutable ""
par CampusNetwork.branch1Host[4].ethg$o[0].channel per 0
attr mutable ""
par CampusNetwork.branch1Host[4].ethg$o[0].channel enabledLineStyle "\"solid\""
par CampusNetwork.branch1Host[4].ethg$o[0].channel disabledLineStyle "\"dashed\""
par CampusNetwork.branch1Host[4].ethg$o[0].channel disabledIcon "\"status/cross\""
par CampusNetwork.branch1Host[4].ethg$o[0].channel length 10m
attr unit m
par CampusNetwork.branch1Switch.ethg$o[5].channel typename "\"inet.node.ethernet.Eth100M\""
par CampusNetwork.branch1Switch.ethg$o[5].channel disabled false
attr mutable ""
par CampusNetwork.branch1Switch.ethg$o[5].channel delay 5e-08s
attr mutable ""
attr unit s
par CampusNetwork.branch1Switch.ethg$o[5].channel datarate 1e+08bps
attr mutable ""
attr unit bps
par CampusNetwork.branch1Switch.ethg$o[5].channel ber 0
attr mutable ""
par CampusNetwork.branch1Switch.ethg$o[5].channel per 0
attr mutable ""
par CampusNetwork.branch1Switch.ethg$o[5].channel enabledLineStyle "\"solid\""
par CampusNetwork.branch1Switch.ethg$o[5].channel disabledLineStyle "\"dashed\""
par CampusNetwork.branch1Switch.ethg$o[5].channel disabledIcon "\"status/cross\""
par CampusNetwork.branch1Switch.ethg$o[5].channel length 10m
attr unit m
par CampusNetwork.branch1Host[5].ethg$o[0].channel typename "\"inet.node.ethernet.Eth100M\""
par CampusNetwork.branch1Host[5].ethg$o[0].channel disabled false
attr mutable ""
par CampusNetwork.branch1Host[5].ethg$o[0].channel delay 5e-08s
attr mutable ""
attr unit s
par CampusNetwork.branch1Host[5].ethg$o[0].channel datarate 1e+08bps
attr mutable ""
attr unit bps
par CampusNetwork.branch1Host[5].ethg$o[0].channel ber 0
attr mutable ""
par CampusNetwork.branch1Host[5].ethg$o[0].channel per 0
attr mutable ""
par CampusNetwork.branch1Host[5].ethg$o[0].channel enabledLineStyle "\"solid\""
par CampusNetwork.branch1Host[5].ethg$o[0].channel disabledLineStyle "\"dashed\""
par CampusNetwork.branch1Host[5].ethg$o[0].channel disabledIcon "\"status/cross\""
par CampusNetwork.branch1Host[5].ethg$o[0].channel length 10m
attr unit m
par CampusNetwork.branch1Switch.ethg$o[6].channel typename "\"inet.node.ethernet.Eth100M\""
par CampusNetwork.branch1Switch.ethg$o[6].channel disabled false
attr mutable ""
par CampusNetwork.branch1Switch.ethg$o[6].channel delay 5e-08s
attr mutable ""
attr unit s
par CampusNetwork.branch1Switch.ethg$o[6].channel datarate 1e+08bps
attr mutable ""
attr unit bps
par CampusNetwork.branch1Switch.ethg$o[6].channel ber 0
attr mutable ""
par CampusNetwork.branch1Switch.ethg$o[6].channel per 0
attr mutable ""
par CampusNetwork.branch1Switch.ethg$o[6].channel enabledLineStyle "\"solid\""
par CampusNetwork.branch1Switch.ethg$o[6].channel disabledLineStyle "\"dashed\""
par CampusNetwork.branch1Switch.ethg$o[6].channel disabledIcon "\"status/cross\""
par CampusNetwork.branch1Switch.ethg$o[6].channel length 10m
attr unit m
par CampusNetwork.branch1Host[6].ethg$o[0].channel typename "\"inet.node.ethernet.Eth100M\""
par CampusNetwork.branch1Host[6].ethg$o[0].channel disabled false
attr mutable ""
par CampusNetwork.branch1Host[6].ethg$o[0].channel delay 5e-08s
attr mutable ""
attr unit s
par CampusNetwork.branch1Host[6].ethg$o[0].channel datarate 1e+08bps
attr mutable ""
attr unit bps
par CampusNetwork.branch1Host[6].ethg$o[0].channel ber 0
attr mutable ""
par CampusNetwork.branch1Host[6].ethg$o[0].channel per 0
attr mutable ""
par CampusNetwork.branch1Host[6].ethg$o[0].channel enabledLineStyle "\"solid\""
par CampusNetwork.branch1Host[6].ethg$o[0].channel disabledLineStyle "\"dashed\""
par CampusNetwork.branch1Host[6].ethg$o[0].channel disabledIcon "\"status/cross\""
par CampusNetwork.branch1Host[6].ethg$o[0].channel length 10m
attr unit m
par CampusNetwork.branch1Switch.ethg$o[7].channel typename "\"inet.node.ethernet.Eth100M\""
par CampusNetwork.branch1Switch.ethg$o[7].channel disabled false
attr mutable ""
par CampusNetwork.branch1Switch.ethg$o[7].channel delay 5e-08s
attr mutable ""
attr unit s
par CampusNetwork.branch1Switch.ethg$o[7].channel datarate 1e+08bps
attr mutable ""
attr unit bps
par CampusNetwork.branch1Switch.ethg$o[7].channel ber 0
attr mutable ""
par CampusNetwork.branch1Switch.ethg$o[7].channel per 0
attr mutable ""
par CampusNetwork.branch1Switch.ethg$o[7].channel enabledLineStyle "\"solid\""
par CampusNetwork.branch1Switch.ethg$o[7].channel disabledLineStyle "\"dashed\""
par CampusNetwork.branch1Switch.ethg$o[7].channel disabledIcon "\"status/cross\""
par CampusNetwork.branch1Switch.ethg$o[7].channel length 10m
attr unit m
par CampusNetwork.branch1Host[7].ethg$o[0].channel typename "\"inet.node.ethernet.Eth100M\""
par CampusNetwork.branch1Host[7].ethg$o[0].channel disabled false
attr mutable ""
par CampusNetwork.branch1Host[7].ethg$o[0].channel delay 5e-08s
attr mutable ""
attr unit s
par CampusNetwork.branch1Host[7].ethg$o[0].channel datarate 1e+08bps
attr mutable ""
attr unit bps
par CampusNetwork.branch1Host[7].ethg$o[0].channel ber 0
attr mutable ""
par CampusNetwork.branch1Host[7].ethg$o[0].channel per 0
attr mutable ""
par CampusNetwork.branch1Host[7].ethg$o[0].channel enabledLineStyle "\"solid\""
par CampusNetwork.branch1Host[7].ethg$o[0].channel disabledLineStyle "\"dashed\""
par CampusNetwork.branch1Host[7].ethg$o[0].channel disabledIcon "\"status/cross\""
par CampusNetwork.branch1Host[7].ethg$o[0].channel length 10m
attr unit m
par CampusNetwork.branch1Switch.ethg$o[8].channel typename "\"inet.node.ethernet.Eth100M\""
par CampusNetwork.branch1Switch.ethg$o[8].channel disabled false
attr mutable ""
par CampusNetwork.branch1Switch.ethg$o[8].channel delay 5e-08s
attr mutable ""
attr unit s
par CampusNetwork.branch1Switch.ethg$o[8].channel datarate 1e+08bps
attr mutable ""
attr unit bps
par CampusNetwork.branch1Switch.ethg$o[8].channel ber 0
attr mutable ""
par CampusNetwork.branch1Switch.ethg$o[8].channel per 0
attr mutable ""
par CampusNetwork.branch1Switch.ethg$o[8].channel enabledLineStyle "\"solid\""
par CampusNetwork.branch1Switch.ethg$o[8].channel disabledLineStyle "\"dashed\""
par CampusNetwork.branch1Switch.ethg$o[8].channel disabledIcon "\"status/cross\""
par CampusNetwork.branch1Switch.ethg$o[8].channel length 10m
attr unit m
par CampusNetwork.branch1Host[8].ethg$o[0].channel typename "\"inet.node.ethernet.Eth100M\""
par CampusNetwork.branch1Host[8].ethg$o[0].channel disabled false
attr mutable ""
par CampusNetwork.branch1Host[8].ethg$o[0].channel delay 5e-08s
attr mutable ""
attr unit s
par CampusNetwork.branch1Host[8].ethg$o[0].channel datarate 1e+08bps
attr mutable ""
attr unit bps
par CampusNetwork.branch1Host[8].ethg$o[0].channel ber 0
attr mutable ""
par CampusNetwork.branch1Host[8].ethg$o[0].channel per 0
attr mutable ""
par CampusNetwork.branch1Host[8].ethg$o[0].channel enabledLineStyle "\"solid\""
par CampusNetwork.branch1Host[8].ethg$o[0].channel disabledLineStyle "\"dashed\""
par CampusNetwork.branch1Host[8].ethg$o[0].channel disabledIcon "\"status/cross\""
par CampusNetwork.branch1Host[8].ethg$o[0].channel length 10m
attr unit m
par CampusNetwork.branch1Switch.ethg$o[9].channel typename "\"inet.node.ethernet.Eth100M\""
par CampusNetwork.branch1Switch.ethg$o[9].channel disabled false
attr mutable ""
par CampusNetwork.branch1Switch.ethg$o[9].channel delay 5e-08s
attr mutable ""
attr unit s
par CampusNetwork.branch1Switch.ethg$o[9].channel datarate 1e+08bps
attr mutable ""
attr unit bps
par CampusNetwork.branch1Switch.ethg$o[9].channel ber 0
attr mutable ""
par CampusNetwork.branch1Switch.ethg$o[9].channel per 0
attr mutable ""
par CampusNetwork.branch1Switch.ethg$o[9].channel enabledLineStyle "\"solid\""
par CampusNetwork.branch1Switch.ethg$o[9].channel disabledLineStyle "\"dashed\""
par CampusNetwork.branch1Switch.ethg$o[9].channel disabledIcon "\"status/cross\""
par CampusNetwork.branch1Switch.ethg$o[9].channel length 10m
attr unit m
par CampusNetwork.branch1Host[9].ethg$o[0].channel typename "\"inet.node.ethernet.Eth100M\""
par CampusNetwork.branch1Host[9].ethg$o[0].channel disabled false
attr mutable ""
par CampusNetwork.branch1Host[9].ethg$o[0].channel delay 5e-08s
attr mutable ""
attr unit s
par CampusNetwork.branch1Host[9].ethg$o[0].channel datarate 1e+08bps
attr mutable ""
attr unit bps
par CampusNetwork.branch1Host[9].ethg$o[0].channel ber 0
attr mutable ""
par CampusNetwork.branch1Host[9].ethg$o[0].channel per 0
attr mutable ""
par CampusNetwork.branch1Host[9].ethg$o[0].channel enabledLineStyle "\"solid\""
par CampusNetwork.branch1Host[9].ethg$o[0].channel disabledLineStyle "\"dashed\""
par CampusNetwork.branch1Host[9].ethg$o[0].channel disabledIcon "\"status/cross\""
par CampusNetwork.branch1Host[9].ethg$o[0].channel length 10m
attr unit m
par CampusNetwork.branch1Switch.ethg$o[10].channel typename "\"inet.node.ethernet.Eth100M\""
par CampusNetwork.branch1Switch.ethg$o[10].channel disabled false
attr mutable ""
par CampusNetwork.branch1Switch.ethg$o[10].channel delay 5e-08s
attr mutable ""
attr unit s
par CampusNetwork.branch1Switch.ethg$o[10].channel datarate 1e+08bps
attr mutable ""
attr unit bps
par CampusNetwork.branch1Switch.ethg$o[10].channel ber 0
attr mutable ""
par CampusNetwork.branch1Switch.ethg$o[10].channel per 0
attr mutable ""
par CampusNetwork.branch1Switch.ethg$o[10].channel enabledLineStyle "\"solid\""
par CampusNetwork.branch1Switch.ethg$o[10].channel disabledLineStyle "\"dashed\""
par CampusNetwork.branch1Switch.ethg$o[10].channel disabledIcon "\"status/cross\""
par CampusNetwork.branch1Switch.ethg$o[10].channel length 10m
attr unit m
par CampusNetwork.branch1Host[10].ethg$o[0].channel typename "\"inet.node.ethernet.Eth100M\""
par CampusNetwork.branch1Host[10].ethg$o[0].channel disabled false
attr mutable ""
par CampusNetwork.branch1Host[10].ethg$o[0].channel delay 5e-08s
attr mutable ""
attr unit s
par CampusNetwork.branch1Host[10].ethg$o[0].channel datarate 1e+08bps
attr mutable ""
attr unit bps
par CampusNetwork.branch1Host[10].ethg$o[0].channel ber 0
attr mutable ""
par CampusNetwork.branch1Host[10].ethg$o[0].channel per 0
attr mutable ""
par CampusNetwork.branch1Host[10].ethg$o[0].channel enabledLineStyle "\"solid\""
par CampusNetwork.branch1Host[10].ethg$o[0].channel disabledLineStyle "\"dashed\""
par CampusNetwork.branch1Host[10].ethg$o[0].channel disabledIcon "\"status/cross\""
par CampusNetwork.branch1Host[10].ethg$o[0].channel length 10m
attr unit m
par CampusNetwork.branch1Switch.ethg$o[11].channel typename "\"inet.node.ethernet.Eth100M\""
par CampusNetwork.branch1Switch.ethg$o[11].channel disabled false
attr mutable ""
par CampusNetwork.branch1Switch.ethg$o[11].channel delay 5e-08s
attr mutable ""
attr unit s
par CampusNetwork.branch1Switch.ethg$o[11].channel datarate 1e+08bps
attr mutable ""
attr unit bps
par CampusNetwork.branch1Switch.ethg$o[11].channel ber 0
attr mutable ""
par CampusNetwork.branch1Switch.ethg$o[11].channel per 0
attr mutable ""
par CampusNetwork.branch1Switch.ethg$o[11].channel enabledLineStyle "\"solid\""
par CampusNetwork.branch1Switch.ethg$o[11].channel disabledLineStyle "\"dashed\""
par CampusNetwork.branch1Switch.ethg$o[11].channel disabledIcon "\"status/cross\""
par CampusNetwork.branch1Switch.ethg$o[11].channel length 10m
attr unit m
par CampusNetwork.branch1Host[11].ethg$o[0].channel typename "\"inet.node.ethernet.Eth100M\""
par CampusNetwork.branch1Host[11].ethg$o[0].channel disabled false
attr mutable ""
par CampusNetwork.branch1Host[11].ethg$o[0].channel delay 5e-08s
attr mutable ""
attr unit s
par CampusNetwork.branch1Host[11].ethg$o[0].channel datarate 1e+08bps
attr mutable ""
attr unit bps
par CampusNetwork.branch1Host[11].ethg$o[0].channel ber 0
attr mutable ""
par CampusNetwork.branch1Host[11].ethg$o[0].channel per 0
attr mutable ""
par CampusNetwork.branch1Host[11].ethg$o[0].channel enabledLineStyle "\"solid\""
par CampusNetwork.branch1Host[11].ethg$o[0].channel disabledLineStyle "\"dashed\""
par CampusNetwork.branch1Host[11].ethg$o[0].channel disabledIcon "\"status/cross\""
par CampusNetwork.branch1Host[11].ethg$o[0].channel length 10m
attr unit m
par CampusNetwork.branch1Switch.ethg$o[12].channel typename "\"inet.node.ethernet.Eth100M\""
par CampusNetwork.branch1Switch.ethg$o[12].channel disabled false
attr mutable ""
par CampusNetwork.branch1Switch.ethg$o[12].channel delay 5e-08s
attr mutable ""
attr unit s
par CampusNetwork.branch1Switch.ethg$o[12].channel datarate 1e+08bps
attr mutable ""
attr unit bps
par CampusNetwork.branch1Switch.ethg$o[12].channel ber 0
attr mutable ""
par CampusNetwork.branch1Switch.ethg$o[12].channel per 0
attr mutable ""
par CampusNetwork.branch1Switch.ethg$o[12].channel enabledLineStyle "\"solid\""
par CampusNetwork.branch1Switch.ethg$o[12].channel disabledLineStyle "\"dashed\""
par CampusNetwork.branch1Switch.ethg$o[12].channel disabledIcon "\"status/cross\""
par CampusNetwork.branch1Switch.ethg$o[12].channel length 10m
attr unit m
par CampusNetwork.branch1Host[12].ethg$o[0].channel typename "\"inet.node.ethernet.Eth100M\""
par CampusNetwork.branch1Host[12].ethg$o[0].channel disabled false
attr mutable ""
par CampusNetwork.branch1Host[12].ethg$o[0].channel delay 5e-08s
attr mutable ""
attr unit s
par CampusNetwork.branch1Host[12].ethg$o[0].channel datarate 1e+08bps
attr mutable ""
attr unit bps
par CampusNetwork.branch1Host[12].ethg$o[0].channel ber 0
attr mutable ""
par CampusNetwork.branch1Host[12].ethg$o[0].channel per 0
attr mutable ""
par CampusNetwork.branch1Host[12].ethg$o[0].channel enabledLineStyle "\"solid\""
par CampusNetwork.branch1Host[12].ethg$o[0].channel disabledLineStyle "\"dashed\""
par CampusNetwork.branch1Host[12].ethg$o[0].channel disabledIcon "\"status/cross\""
par CampusNetwork.branch1Host[12].ethg$o[0].channel length 10m
attr unit m
par CampusNetwork.branch1Switch.ethg$o[13].channel typename "\"inet.node.ethernet.Eth100M\""
par CampusNetwork.branch1Switch.ethg$o[13].channel disabled false
attr mutable ""
par CampusNetwork.branch1Switch.ethg$o[13].channel delay 5e-08s
attr mutable ""
attr unit s
par CampusNetwork.branch1Switch.ethg$o[13].channel datarate 1e+08bps
attr mutable ""
attr unit bps
par CampusNetwork.branch1Switch.ethg$o[13].channel ber 0
attr mutable ""
par CampusNetwork.branch1Switch.ethg$o[13].channel per 0
attr mutable ""
par CampusNetwork.branch1Switch.ethg$o[13].channel enabledLineStyle "\"solid\""
par CampusNetwork.branch1Switch.ethg$o[13].channel disabledLineStyle "\"dashed\""
par CampusNetwork.branch1Switch.ethg$o[13].channel disabledIcon "\"status/cross\""
par CampusNetwork.branch1Switch.ethg$o[13].channel length 10m
attr unit m
par CampusNetwork.branch1Host[13].ethg$o[0].channel typename "\"inet.node.ethernet.Eth100M\""
par CampusNetwork.branch1Host[13].ethg$o[0].channel disabled false
attr mutable ""
par CampusNetwork.branch1Host[13].ethg$o[0].channel delay 5e-08s
attr mutable ""
attr unit s
par CampusNetwork.branch1Host[13].ethg$o[0].channel datarate 1e+08bps
attr mutable ""
attr unit bps
par CampusNetwork.branch1Host[13].ethg$o[0].channel ber 0
attr mutable ""
par CampusNetwork.branch1Host[13].ethg$o[0].channel per 0
attr mutable ""
par CampusNetwork.branch1Host[13].ethg$o[0].channel enabledLineStyle "\"solid\""
par CampusNetwork.branch1Host[13].ethg$o[0].channel disabledLineStyle "\"dashed\""
par CampusNetwork.branch1Host[13].ethg$o[0].channel disabledIcon "\"status/cross\""
par CampusNetwork.branch1Host[13].ethg$o[0].channel length 10m
attr unit m
par CampusNetwork.branch1Switch.ethg$o[14].channel typename "\"inet.node.ethernet.Eth100M\""
par CampusNetwork.branch1Switch.ethg$o[14].channel disabled false
attr mutable ""
par CampusNetwork.branch1Switch.ethg$o[14].channel delay 5e-08s
attr mutable ""
attr unit s
par CampusNetwork.branch1Switch.ethg$o[14].channel datarate 1e+08bps
attr mutable ""
attr unit bps
par CampusNetwork.branch1Switch.ethg$o[14].channel ber 0
attr mutable ""
par CampusNetwork.branch1Switch.ethg$o[14].channel per 0
attr mutable ""
par CampusNetwork.branch1Switch.ethg$o[14].channel enabledLineStyle "\"solid\""
par CampusNetwork.branch1Switch.ethg$o[14].channel disabledLineStyle "\"dashed\""
par CampusNetwork.branch1Switch.ethg$o[14].channel disabledIcon "\"status/cross\""
par CampusNetwork.branch1Switch.ethg$o[14].channel length 10m
attr unit m
par CampusNetwork.branch1Host[14].ethg$o[0].channel typename "\"inet.node.ethernet.Eth100M\""
par CampusNetwork.branch1Host[14].ethg$o[0].channel disabled false
attr mutable ""
par CampusNetwork.branch1Host[14].ethg$o[0].channel delay 5e-08s
attr mutable ""
attr unit s
par CampusNetwork.branch1Host[14].ethg$o[0].channel datarate 1e+08bps
attr mutable ""
attr unit bps
par CampusNetwork.branch1Host[14].ethg$o[0].channel ber 0
attr mutable ""
par CampusNetwork.branch1Host[14].ethg$o[0].channel per 0
attr mutable ""
par CampusNetwork.branch1Host[14].ethg$o[0].channel enabledLineStyle "\"solid\""
par CampusNetwork.branch1Host[14].ethg$o[0].channel disabledLineStyle "\"dashed\""
par CampusNetwork.branch1Host[14].ethg$o[0].channel disabledIcon "\"status/cross\""
par CampusNetwork.branch1Host[14].ethg$o[0].channel length 10m
attr unit m
par CampusNetwork.branch1Switch.ethg$o[15].channel typename "\"inet.node.ethernet.Eth100M\""
par CampusNetwork.branch1Switch.ethg$o[15].channel disabled false
attr mutable ""
par CampusNetwork.branch1Switch.ethg$o[15].channel delay 5e-08s
attr mutable ""
attr unit s
par CampusNetwork.branch1Switch.ethg$o[15].channel datarate 1e+08bps
attr mutable ""
attr unit bps
par CampusNetwork.branch1Switch.ethg$o[15].channel ber 0
attr mutable ""
par CampusNetwork.branch1Switch.ethg$o[15].channel per 0
attr mutable ""
par CampusNetwork.branch1Switch.ethg$o[15].channel enabledLineStyle "\"solid\""
par CampusNetwork.branch1Switch.ethg$o[15].channel disabledLineStyle "\"dashed\""
par CampusNetwork.branch1Switch.ethg$o[15].channel disabledIcon "\"status/cross\""
par CampusNetwork.branch1Switch.ethg$o[15].channel length 10m
attr unit m
par CampusNetwork.branch2Router.ethg$o[0].channel typename "\"inet.node.ethernet.Eth1G\""
par CampusNetwork.branch2Router.ethg$o[0].channel disabled false
attr mutable ""
par CampusNetwork.branch2Router.ethg$o[0].channel delay 5e-08s
attr mutable ""
attr unit s
par CampusNetwork.branch2Router.ethg$o[0].channel datarate 1e+09bps
attr mutable ""
attr unit bps
par CampusNetwork.branch2Router.ethg$o[0].channel ber 0
attr mutable ""
par CampusNetwork.branch2Router.ethg$o[0].channel per 0
attr mutable ""
par CampusNetwork.branch2Router.ethg$o[0].channel enabledLineStyle "\"solid\""
par CampusNetwork.branch2Router.ethg$o[0].channel disabledLineStyle "\"dashed\""
par CampusNetwork.branch2Router.ethg$o[0].channel disabledIcon "\"status/cross\""
par CampusNetwork.branch2Router.ethg$o[0].channel length 10m
attr unit m
par CampusNetwork.internet.ethg$o[3].channel typename "\"inet.node.ethernet.Eth1G\""
par CampusNetwork.internet.ethg$o[3].channel disabled false
attr mutable ""
par CampusNetwork.internet.ethg$o[3].channel delay 5e-08s
attr mutable ""
attr unit s
par CampusNetwork.internet.ethg$o[3].channel datarate 1e+09bps
attr mutable ""
attr unit bps
par CampusNetwork.internet.ethg$o[3].channel ber 0
attr mutable ""
par CampusNetwork.internet.ethg$o[3].channel per 0
attr mutable ""
par CampusNetwork.internet.ethg$o[3].channel enabledLineStyle "\"solid\""
par CampusNetwork.internet.ethg$o[3].channel disabledLineStyle "\"dashed\""
par CampusNetwork.internet.ethg$o[3].channel disabledIcon "\"status/cross\""
par CampusNetwork.internet.ethg$o[3].channel length 10m
attr unit m
par CampusNetwork.branch2Switch.ethg$o[0].channel typename "\"inet.node.ethernet.Eth100M\""
par CampusNetwork.branch2Switch.ethg$o[0].channel disabled false
attr mutable ""
par CampusNetwork.branch2Switch.ethg$o[0].channel delay 5e-08s
attr mutable ""
attr unit s
par CampusNetwork.branch2Switch.ethg$o[0].channel datarate 1e+08bps
attr mutable ""
attr unit bps
par CampusNetwork.branch2Switch.ethg$o[0].channel ber 0
attr mutable ""
par CampusNetwork.branch2Switch.ethg$o[0].channel per 0
attr mutable ""
par CampusNetwork.branch2Switch.ethg$o[0].channel enabledLineStyle "\"solid\""
par CampusNetwork.branch2Switch.ethg$o[0].channel disabledLineStyle "\"dashed\""
par CampusNetwork.branch2Switch.ethg$o[0].channel disabledIcon "\"status/cross\""
par CampusNetwork.branch2Switch.ethg$o[0].channel length 10m
attr unit m
par CampusNetwork.branch2Router.ethg$o[1].channel typename "\"inet.node.ethernet.Eth100M\""
par CampusNetwork.branch2Router.ethg$o[1].channel disabled false
attr mutable ""
par CampusNetwork.branch2Router.ethg$o[1].channel delay 5e-08s
attr mutable ""
attr unit s
par CampusNetwork.branch2Router.ethg$o[1].channel datarate 1e+08bps
attr mutable ""
attr unit bps
par CampusNetwork.branch2Router.ethg$o[1].channel ber 0
attr mutable ""
par CampusNetwork.branch2Router.ethg$o[1].channel per 0
attr mutable ""
par CampusNetwork.branch2Router.ethg$o[1].channel enabledLineStyle "\"solid\""
par CampusNetwork.branch2Router.ethg$o[1].channel disabledLineStyle "\"dashed\""
par CampusNetwork.branch2Router.ethg$o[1].channel disabledIcon "\"status/cross\""
par CampusNetwork.branch2Router.ethg$o[1].channel length 10m
attr unit m
par CampusNetwork.branch2Host[0].ethg$o[0].channel typename "\"inet.node.ethernet.Eth100M\""
par CampusNetwork.branch2Host[0].ethg$o[0].channel disabled false
attr mutable ""
par CampusNetwork.branch2Host[0].ethg$o[0].channel delay 5e-08s
attr mutable ""
attr unit s
par CampusNetwork.branch2Host[0].ethg$o[0].channel datarate 1e+08bps
attr mutable ""
attr unit bps
par CampusNetwork.branch2Host[0].ethg$o[0].channel ber 0
attr mutable ""
par CampusNetwork.branch2Host[0].ethg$o[0].channel per 0
attr mutable ""
par CampusNetwork.branch2Host[0].ethg$o[0].channel enabledLineStyle "\"solid\""
par CampusNetwork.branch2Host[0].ethg$o[0].channel disabledLineStyle "\"dashed\""
par CampusNetwork.branch2Host[0].ethg$o[0].channel disabledIcon "\"status/cross\""
par CampusNetwork.branch2Host[0].ethg$o[0].channel length 10m
attr unit m
par CampusNetwork.branch2Switch.ethg$o[1].channel typename "\"inet.node.ethernet.Eth100M\""
par CampusNetwork.branch2Switch.ethg$o[1].channel disabled false
attr mutable ""
par CampusNetwork.branch2Switch.ethg$o[1].channel delay 5e-08s
attr mutable ""
attr unit s
par CampusNetwork.branch2Switch.ethg$o[1].channel datarate 1e+08bps
attr mutable ""
attr unit bps
par CampusNetwork.branch2Switch.ethg$o[1].channel ber 0
attr mutable ""
par CampusNetwork.branch2Switch.ethg$o[1].channel per 0
attr mutable ""
par CampusNetwork.branch2Switch.ethg$o[1].channel enabledLineStyle "\"solid\""
par CampusNetwork.branch2Switch.ethg$o[1].channel disabledLineStyle "\"dashed\""
par CampusNetwork.branch2Switch.ethg$o[1].channel disabledIcon "\"status/cross\""
par CampusNetwork.branch2Switch.ethg$o[1].channel length 10m
attr unit m
par CampusNetwork.branch2Host[1].ethg$o[0].channel typename "\"inet.node.ethernet.Eth100M\""
par CampusNetwork.branch2Host[1].ethg$o[0].channel disabled false
attr mutable ""
par CampusNetwork.branch2Host[1].ethg$o[0].channel delay 5e-08s
attr mutable ""
attr unit s
par CampusNetwork.branch2Host[1].ethg$o[0].channel datarate 1e+08bps
attr mutable ""
attr unit bps
par CampusNetwork.branch2Host[1].ethg$o[0].channel ber 0
attr mutable ""
par CampusNetwork.branch2Host[1].ethg$o[0].channel per 0
attr mutable ""
par CampusNetwork.branch2Host[1].ethg$o[0].channel enabledLineStyle "\"solid\""
par CampusNetwork.branch2Host[1].ethg$o[0].channel disabledLineStyle "\"dashed\""
par CampusNetwork.branch2Host[1].ethg$o[0].channel disabledIcon "\"status/cross\""
par CampusNetwork.branch2Host[1].ethg$o[0].channel length 10m
attr unit m
par CampusNetwork.branch2Switch.ethg$o[2].channel typename "\"inet.node.ethernet.Eth100M\""
par CampusNetwork.branch2Switch.ethg$o[2].channel disabled false
attr mutable ""
par CampusNetwork.branch2Switch.ethg$o[2].channel delay 5e-08s
attr mutable ""
attr unit s
par CampusNetwork.branch2Switch.ethg$o[2].channel datarate 1e+08bps
attr mutable ""
attr unit bps
par CampusNetwork.branch2Switch.ethg$o[2].channel ber 0
attr mutable ""
par CampusNetwork.branch2Switch.ethg$o[2].channel per 0
attr mutable ""
par CampusNetwork.branch2Switch.ethg$o[2].channel enabledLineStyle "\"solid\""
par CampusNetwork.branch2Switch.ethg$o[2].channel disabledLineStyle "\"dashed\""
par CampusNetwork.branch2Switch.ethg$o[2].channel disabledIcon "\"status/cross\""
par CampusNetwork.branch2Switch.ethg$o[2].channel length 10m
attr unit m
par CampusNetwork.branch2Host[2].ethg$o[0].channel typename "\"inet.node.ethernet.Eth100M\""
par CampusNetwork.branch2Host[2].ethg$o[0].channel disabled false
attr mutable ""
par CampusNetwork.branch2Host[2].ethg$o[0].channel delay 5e-08s
attr mutable ""
attr unit s
par CampusNetwork.branch2Host[2].ethg$o[0].channel datarate 1e+08bps
attr mutable ""
attr unit bps
par CampusNetwork.branch2Host[2].ethg$o[0].channel ber 0
attr mutable ""
par CampusNetwork.branch2Host[2].ethg$o[0].channel per 0
attr mutable ""
par CampusNetwork.branch2Host[2].ethg$o[0].channel enabledLineStyle "\"solid\""
par CampusNetwork.branch2Host[2].ethg$o[0].channel disabledLineStyle "\"dashed\""
par CampusNetwork.branch2Host[2].ethg$o[0].channel disabledIcon "\"status/cross\""
par CampusNetwork.branch2Host[2].ethg$o[0].channel length 10m
attr unit m
par CampusNetwork.branch2Switch.ethg$o[3].channel typename "\"inet.node.ethernet.Eth100M\""
par CampusNetwork.branch2Switch.ethg$o[3].channel disabled false
attr mutable ""
par CampusNetwork.branch2Switch.ethg$o[3].channel delay 5e-08s
attr mutable ""
attr unit s
par CampusNetwork.branch2Switch.ethg$o[3].channel datarate 1e+08bps
attr mutable ""
attr unit bps
par CampusNetwork.branch2Switch.ethg$o[3].channel ber 0
attr mutable ""
par CampusNetwork.branch2Switch.ethg$o[3].channel per 0
attr mutable ""
par CampusNetwork.branch2Switch.ethg$o[3].channel enabledLineStyle "\"solid\""
par CampusNetwork.branch2Switch.ethg$o[3].channel disabledLineStyle "\"dashed\""
par CampusNetwork.branch2Switch.ethg$o[3].channel disabledIcon "\"status/cross\""
par CampusNetwork.branch2Switch.ethg$o[3].channel length 10m
attr unit m
par CampusNetwork.branch2Host[3].ethg$o[0].channel typename "\"inet.node.ethernet.Eth100M\""
par CampusNetwork.branch2Host[3].ethg$o[0].channel disabled false
attr mutable ""
par CampusNetwork.branch2Host[3].ethg$o[0].channel delay 5e-08s
attr mutable ""
attr unit s
par CampusNetwork.branch2Host[3].ethg$o[0].channel datarate 1e+08bps
attr mutable ""
attr unit bps
par CampusNetwork.branch2Host[3].ethg$o[0].channel ber 0
attr mutable ""
par CampusNetwork.branch2Host[3].ethg$o[0].channel per 0
attr mutable ""
par CampusNetwork.branch2Host[3].ethg$o[0].channel enabledLineStyle "\"solid\""
par CampusNetwork.branch2Host[3].ethg$o[0].channel disabledLineStyle "\"dashed\""
par CampusNetwork.branch2Host[3].ethg$o[0].channel disabledIcon "\"status/cross\""
par CampusNetwork.branch2Host[3].ethg$o[0].channel length 10m
attr unit m
par CampusNetwork.branch2Switch.ethg$o[4].channel typename "\"inet.node.ethernet.Eth100M\""
par CampusNetwork.branch2Switch.ethg$o[4].channel disabled false
attr mutable ""
par CampusNetwork.branch2Switch.ethg$o[4].channel delay 5e-08s
attr mutable ""
attr unit s
par CampusNetwork.branch2Switch.ethg$o[4].channel datarate 1e+08bps
attr mutable ""
attr unit bps
par CampusNetwork.branch2Switch.ethg$o[4].channel ber 0
attr mutable ""
par CampusNetwork.branch2Switch.ethg$o[4].channel per 0
attr mutable ""
par CampusNetwork.branch2Switch.ethg$o[4].channel enabledLineStyle "\"solid\""
par CampusNetwork.branch2Switch.ethg$o[4].channel disabledLineStyle "\"dashed\""
par CampusNetwork.branch2Switch.ethg$o[4].channel disabledIcon "\"status/cross\""
par CampusNetwork.branch2Switch.ethg$o[4].channel length 10m
attr unit m
par CampusNetwork.branch2Host[4].ethg$o[0].channel typename "\"inet.node.ethernet.Eth100M\""
par CampusNetwork.branch2Host[4].ethg$o[0].channel disabled false
attr mutable ""
par CampusNetwork.branch2Host[4].ethg$o[0].channel delay 5e-08s
attr mutable ""
attr unit s
par CampusNetwork.branch2Host[4].ethg$o[0].channel datarate 1e+08bps
attr mutable ""
attr unit bps
par CampusNetwork.branch2Host[4].ethg$o[0].channel ber 0
attr mutable ""
par CampusNetwork.branch2Host[4].ethg$o[0].channel per 0
attr mutable ""
par CampusNetwork.branch2Host[4].ethg$o[0].channel enabledLineStyle "\"solid\""
par CampusNetwork.branch2Host[4].ethg$o[0].channel disabledLineStyle "\"dashed\""
par CampusNetwork.branch2Host[4].ethg$o[0].channel disabledIcon "\"status/cross\""
par CampusNetwork.branch2Host[4].ethg$o[0].channel length 10m
attr unit m
par CampusNetwork.branch2Switch.ethg$o[5].channel typename "\"inet.node.ethernet.Eth100M\""
par CampusNetwork.branch2Switch.ethg$o[5].channel disabled false
attr mutable ""
par CampusNetwork.branch2Switch.ethg$o[5].channel delay 5e-08s
attr mutable ""
attr unit s
par CampusNetwork.branch2Switch.ethg$o[5].channel datarate 1e+08bps
attr mutable ""
attr unit bps
par CampusNetwork.branch2Switch.ethg$o[5].channel ber 0
attr mutable ""
par CampusNetwork.branch2Switch.ethg$o[5].channel per 0
attr mutable ""
par CampusNetwork.branch2Switch.ethg$o[5].channel enabledLineStyle "\"solid\""
par CampusNetwork.branch2Switch.ethg$o[5].channel disabledLineStyle "\"dashed\""
par CampusNetwork.branch2Switch.ethg$o[5].channel disabledIcon "\"status/cross\""
par CampusNetwork.branch2Switch.ethg$o[5].channel length 10m
attr unit m
par CampusNetwork.branch2Host[5].ethg$o[0].channel typename "\"inet.node.ethernet.Eth100M\""
par CampusNetwork.branch2Host[5].ethg$o[0].channel disabled false
attr mutable ""
par CampusNetwork.branch2Host[5].ethg$o[0].channel delay 5e-08s
attr mutable ""
attr unit s
par CampusNetwork.branch2Host[5].ethg$o[0].channel datarate 1e+08bps
attr mutable ""
attr unit bps
par CampusNetwork.branch2Host[5].ethg$o[0].channel ber 0
attr mutable ""
par CampusNetwork.branch2Host[5].ethg$o[0].channel per 0
attr mutable ""
par CampusNetwork.branch2Host[5].ethg$o[0].channel enabledLineStyle "\"solid\""
par CampusNetwork.branch2Host[5].ethg$o[0].channel disabledLineStyle "\"dashed\""
par CampusNetwork.branch2Host[5].ethg$o[0].channel disabledIcon "\"status/cross\""
par CampusNetwork.branch2Host[5].ethg$o[0].channel length 10m
attr unit m
par CampusNetwork.branch2Switch.ethg$o[6].channel typename "\"inet.node.ethernet.Eth100M\""
par CampusNetwork.branch2Switch.ethg$o[6].channel disabled false
attr mutable ""
par CampusNetwork.branch2Switch.ethg$o[6].channel delay 5e-08s
attr mutable ""
attr unit s
par CampusNetwork.branch2Switch.ethg$o[6].channel datarate 1e+08bps
attr mutable ""
attr unit bps
par CampusNetwork.branch2Switch.ethg$o[6].channel ber 0
attr mutable ""
par CampusNetwork.branch2Switch.ethg$o[6].channel per 0
attr mutable ""
par CampusNetwork.branch2Switch.ethg$o[6].channel enabledLineStyle "\"solid\""
par CampusNetwork.branch2Switch.ethg$o[6].channel disabledLineStyle "\"dashed\""
par CampusNetwork.branch2Switch.ethg$o[6].channel disabledIcon "\"status/cross\""
par CampusNetwork.branch2Switch.ethg$o[6].channel length 10m
attr unit m
par CampusNetwork.branch2Host[6].ethg$o[0].channel typename "\"inet.node.ethernet.Eth100M\""
par CampusNetwork.branch2Host[6].ethg$o[0].channel disabled false
attr mutable ""
par CampusNetwork.branch2Host[6].ethg$o[0].channel delay 5e-08s
attr mutable ""
attr unit s
par CampusNetwork.branch2Host[6].ethg$o[0].channel datarate 1e+08bps
attr mutable ""
attr unit bps
par CampusNetwork.branch2Host[6].ethg$o[0].channel ber 0
attr mutable ""
par CampusNetwork.branch2Host[6].ethg$o[0].channel per 0
attr mutable ""
par CampusNetwork.branch2Host[6].ethg$o[0].channel enabledLineStyle "\"solid\""
par CampusNetwork.branch2Host[6].ethg$o[0].channel disabledLineStyle "\"dashed\""
par CampusNetwork.branch2Host[6].ethg$o[0].channel disabledIcon "\"status/cross\""
par CampusNetwork.branch2Host[6].ethg$o[0].channel length 10m
attr unit m
par CampusNetwork.branch2Switch.ethg$o[7].channel typename "\"inet.node.ethernet.Eth100M\""
par CampusNetwork.branch2Switch.ethg$o[7].channel disabled false
attr mutable ""
par CampusNetwork.branch2Switch.ethg$o[7].channel delay 5e-08s
attr mutable ""
attr unit s
par CampusNetwork.branch2Switch.ethg$o[7].channel datarate 1e+08bps
attr mutable ""
attr unit bps
par CampusNetwork.branch2Switch.ethg$o[7].channel ber 0
attr mutable ""
par CampusNetwork.branch2Switch.ethg$o[7].channel per 0
attr mutable ""
par CampusNetwork.branch2Switch.ethg$o[7].channel enabledLineStyle "\"solid\""
par CampusNetwork.branch2Switch.ethg$o[7].channel disabledLineStyle "\"dashed\""
par CampusNetwork.branch2Switch.ethg$o[7].channel disabledIcon "\"status/cross\""
par CampusNetwork.branch2Switch.ethg$o[7].channel length 10m
attr unit m
par CampusNetwork.branch2Host[7].ethg$o[0].channel typename "\"inet.node.ethernet.Eth100M\""
par CampusNetwork.branch2Host[7].ethg$o[0].channel disabled false
attr mutable ""
par CampusNetwork.branch2Host[7].ethg$o[0].channel delay 5e-08s
attr mutable ""
attr unit s
par CampusNetwork.branch2Host[7].ethg$o[0].channel datarate 1e+08bps
attr mutable ""
attr unit bps
par CampusNetwork.branch2Host[7].ethg$o[0].channel ber 0
attr mutable ""
par CampusNetwork.branch2Host[7].ethg$o[0].channel per 0
attr mutable ""
par CampusNetwork.branch2Host[7].ethg$o[0].channel enabledLineStyle "\"solid\""
par CampusNetwork.branch2Host[7].ethg$o[0].channel disabledLineStyle "\"dashed\""
par CampusNetwork.branch2Host[7].ethg$o[0].channel disabledIcon "\"status/cross\""
par CampusNetwork.branch2Host[7].ethg$o[0].channel length 10m
attr unit m
par CampusNetwork.branch2Switch.ethg$o[8].channel typename "\"inet.node.ethernet.Eth100M\""
par CampusNetwork.branch2Switch.ethg$o[8].channel disabled false
attr mutable ""
par CampusNetwork.branch2Switch.ethg$o[8].channel delay 5e-08s
attr mutable ""
attr unit s
par CampusNetwork.branch2Switch.ethg$o[8].channel datarate 1e+08bps
attr mutable ""
attr unit bps
par CampusNetwork.branch2Switch.ethg$o[8].channel ber 0
attr mutable ""
par CampusNetwork.branch2Switch.ethg$o[8].channel per 0
attr mutable ""
par CampusNetwork.branch2Switch.ethg$o[8].channel enabledLineStyle "\"solid\""
par CampusNetwork.branch2Switch.ethg$o[8].channel disabledLineStyle "\"dashed\""
par CampusNetwork.branch2Switch.ethg$o[8].channel disabledIcon "\"status/cross\""
par CampusNetwork.branch2Switch.ethg$o[8].channel length 10m
attr unit m
par CampusNetwork.branch2Host[8].ethg$o[0].channel typename "\"inet.node.ethernet.Eth100M\""
par CampusNetwork.branch2Host[8].ethg$o[0].channel disabled false
attr mutable ""
par CampusNetwork.branch2Host[8].ethg$o[0].channel delay 5e-08s
attr mutable ""
attr unit s
par CampusNetwork.branch2Host[8].ethg$o[0].channel datarate 1e+08bps
attr mutable ""
attr unit bps
par CampusNetwork.branch2Host[8].ethg$o[0].channel ber 0
attr mutable ""
par CampusNetwork.branch2Host[8].ethg$o[0].channel per 0
attr mutable ""
par CampusNetwork.branch2Host[8].ethg$o[0].channel enabledLineStyle "\"solid\""
par CampusNetwork.branch2Host[8].ethg$o[0].channel disabledLineStyle "\"dashed\""
par CampusNetwork.branch2Host[8].ethg$o[0].channel disabledIcon "\"status/cross\""
par CampusNetwork.branch2Host[8].ethg$o[0].channel length 10m
attr unit m
par CampusNetwork.branch2Switch.ethg$o[9].channel typename "\"inet.node.ethernet.Eth100M\""
par CampusNetwork.branch2Switch.ethg$o[9].channel disabled false
attr mutable ""
par CampusNetwork.branch2Switch.ethg$o[9].channel delay 5e-08s
attr mutable ""
attr unit s
par CampusNetwork.branch2Switch.ethg$o[9].channel datarate 1e+08bps
attr mutable ""
attr unit bps
par CampusNetwork.branch2Switch.ethg$o[9].channel ber 0
attr mutable ""
par CampusNetwork.branch2Switch.ethg$o[9].channel per 0
attr mutable ""
par CampusNetwork.branch2Switch.ethg$o[9].channel enabledLineStyle "\"solid\""
par CampusNetwork.branch2Switch.ethg$o[9].channel disabledLineStyle "\"dashed\""
par CampusNetwork.branch2Switch.ethg$o[9].channel disabledIcon "\"status/cross\""
par CampusNetwork.branch2Switch.ethg$o[9].channel length 10m
attr unit m
par CampusNetwork.branch2Host[9].ethg$o[0].channel typename "\"inet.node.ethernet.Eth100M\""
par CampusNetwork.branch2Host[9].ethg$o[0].channel disabled false
attr mutable ""
par CampusNetwork.branch2Host[9].ethg$o[0].channel delay 5e-08s
attr mutable ""
attr unit s
par CampusNetwork.branch2Host[9].ethg$o[0].channel datarate 1e+08bps
attr mutable ""
attr unit bps
par CampusNetwork.branch2Host[9].ethg$o[0].channel ber 0
attr mutable ""
par CampusNetwork.branch2Host[9].ethg$o[0].channel per 0
attr mutable ""
par CampusNetwork.branch2Host[9].ethg$o[0].channel enabledLineStyle "\"solid\""
par CampusNetwork.branch2Host[9].ethg$o[0].channel disabledLineStyle "\"dashed\""
par CampusNetwork.branch2Host[9].ethg$o[0].channel disabledIcon "\"status/cross\""
par CampusNetwork.branch2Host[9].ethg$o[0].channel length 10m
attr unit m
par CampusNetwork.branch2Switch.ethg$o[10].channel typename "\"inet.node.ethernet.Eth100M\""
par CampusNetwork.branch2Switch.ethg$o[10].channel disabled false
attr mutable ""
par CampusNetwork.branch2Switch.ethg$o[10].channel delay 5e-08s
attr mutable ""
attr unit s
par CampusNetwork.branch2Switch.ethg$o[10].channel datarate 1e+08bps
attr mutable ""
attr unit bps
par CampusNetwork.branch2Switch.ethg$o[10].channel ber 0
attr mutable ""
par CampusNetwork.branch2Switch.ethg$o[10].channel per 0
attr mutable ""
par CampusNetwork.branch2Switch.ethg$o[10].channel enabledLineStyle "\"solid\""
par CampusNetwork.branch2Switch.ethg$o[10].channel disabledLineStyle "\"dashed\""
par CampusNetwork.branch2Switch.ethg$o[10].channel disabledIcon "\"status/cross\""
par CampusNetwork.branch2Switch.ethg$o[10].channel length 10m
attr unit m
par CampusNetwork.branch2Host[10].ethg$o[0].channel typename "\"inet.node.ethernet.Eth100M\""
par CampusNetwork.branch2Host[10].ethg$o[0].channel disabled false
attr mutable ""
par CampusNetwork.branch2Host[10].ethg$o[0].channel delay 5e-08s
attr mutable ""
attr unit s
par CampusNetwork.branch2Host[10].ethg$o[0].channel datarate 1e+08bps
attr mutable ""
attr unit bps
par CampusNetwork.branch2Host[10].ethg$o[0].channel ber 0
attr mutable ""
par CampusNetwork.branch2Host[10].ethg$o[0].channel per 0
attr mutable ""
par CampusNetwork.branch2Host[10].ethg$o[0].channel enabledLineStyle "\"solid\""
par CampusNetwork.branch2Host[10].ethg$o[0].channel disabledLineStyle "\"dashed\""
par CampusNetwork.branch2Host[10].ethg$o[0].channel disabledIcon "\"status/cross\""
par CampusNetwork.branch2Host[10].ethg$o[0].channel length 10m
attr unit m
par CampusNetwork.branch2Switch.ethg$o[11].channel typename "\"inet.node.ethernet.Eth100M\""
par CampusNetwork.branch2Switch.ethg$o[11].channel disabled false
attr mutable ""
par CampusNetwork.branch2Switch.ethg$o[11].channel delay 5e-08s
attr mutable ""
attr unit s
par CampusNetwork.branch2Switch.ethg$o[11].channel datarate 1e+08bps
attr mutable ""
attr unit bps
par CampusNetwork.branch2Switch.ethg$o[11].channel ber 0
attr mutable ""
par CampusNetwork.branch2Switch.ethg$o[11].channel per 0
attr mutable ""
par CampusNetwork.branch2Switch.ethg$o[11].channel enabledLineStyle "\"solid\""
par CampusNetwork.branch2Switch.ethg$o[11].channel disabledLineStyle "\"dashed\""
par CampusNetwork.branch2Switch.ethg$o[11].channel disabledIcon "\"status/cross\""
par CampusNetwork.branch2Switch.ethg$o[11].channel length 10m
attr unit m
par CampusNetwork.branch2Host[11].ethg$o[0].channel typename "\"inet.node.ethernet.Eth100M\""
par CampusNetwork.branch2Host[11].ethg$o[0].channel disabled false
attr mutable ""
par CampusNetwork.branch2Host[11].ethg$o[0].channel delay 5e-08s
attr mutable ""
attr unit s
par CampusNetwork.branch2Host[11].ethg$o[0].channel datarate 1e+08bps
attr mutable ""
attr unit bps
par CampusNetwork.branch2Host[11].ethg$o[0].channel ber 0
attr mutable ""
par CampusNetwork.branch2Host[11].ethg$o[0].channel per 0
attr mutable ""
par CampusNetwork.branch2Host[11].ethg$o[0].channel enabledLineStyle "\"solid\""
par CampusNetwork.branch2Host[11].ethg$o[0].channel disabledLineStyle "\"dashed\""
par CampusNetwork.branch2Host[11].ethg$o[0].channel disabledIcon "\"status/cross\""
par CampusNetwork.branch2Host[11].ethg$o[0].channel length 10m
attr unit m
par CampusNetwork.branch2Switch.ethg$o[12].channel typename "\"inet.node.ethernet.Eth100M\""
par CampusNetwork.branch2Switch.ethg$o[12].channel disabled false
attr mutable ""
par CampusNetwork.branch2Switch.ethg$o[12].channel delay 5e-08s
attr mutable ""
attr unit s
par CampusNetwork.branch2Switch.ethg$o[12].channel datarate 1e+08bps
attr mutable ""
attr unit bps
par CampusNetwork.branch2Switch.ethg$o[12].channel ber 0
attr mutable ""
par CampusNetwork.branch2Switch.ethg$o[12].channel per 0
attr mutable ""
par CampusNetwork.branch2Switch.ethg$o[12].channel enabledLineStyle "\"solid\""
par CampusNetwork.branch2Switch.ethg$o[12].channel disabledLineStyle "\"dashed\""
par CampusNetwork.branch2Switch.ethg$o[12].channel disabledIcon "\"status/cross\""
par CampusNetwork.branch2Switch.ethg$o[12].channel length 10m
attr unit m
par CampusNetwork.branch2Host[12].ethg$o[0].channel typename "\"inet.node.ethernet.Eth100M\""
par CampusNetwork.branch2Host[12].ethg$o[0].channel disabled false
attr mutable ""
par CampusNetwork.branch2Host[12].ethg$o[0].channel delay 5e-08s
attr mutable ""
attr unit s
par CampusNetwork.branch2Host[12].ethg$o[0].channel datarate 1e+08bps
attr mutable ""
attr unit bps
par CampusNetwork.branch2Host[12].ethg$o[0].channel ber 0
attr mutable ""
par CampusNetwork.branch2Host[12].ethg$o[0].channel per 0
attr mutable ""
par CampusNetwork.branch2Host[12].ethg$o[0].channel enabledLineStyle "\"solid\""
par CampusNetwork.branch2Host[12].ethg$o[0].channel disabledLineStyle "\"dashed\""
par CampusNetwork.branch2Host[12].ethg$o[0].channel disabledIcon "\"status/cross\""
par CampusNetwork.branch2Host[12].ethg$o[0].channel length 10m
attr unit m
par CampusNetwork.branch2Switch.ethg$o[13].channel typename "\"inet.node.ethernet.Eth100M\""
par CampusNetwork.branch2Switch.ethg$o[13].channel disabled false
attr mutable ""
par CampusNetwork.branch2Switch.ethg$o[13].channel delay 5e-08s
attr mutable ""
attr unit s
par CampusNetwork.branch2Switch.ethg$o[13].channel datarate 1e+08bps
attr mutable ""
attr unit bps
par CampusNetwork.branch2Switch.ethg$o[13].channel ber 0
attr mutable ""
par CampusNetwork.branch2Switch.ethg$o[13].channel per 0
attr mutable ""
par CampusNetwork.branch2Switch.ethg$o[13].channel enabledLineStyle "\"solid\""
par CampusNetwork.branch2Switch.ethg$o[13].channel disabledLineStyle "\"dashed\""
par CampusNetwork.branch2Switch.ethg$o[13].channel disabledIcon "\"status/cross\""
par CampusNetwork.branch2Switch.ethg$o[13].channel length 10m
attr unit m
par CampusNetwork.branch2Host[13].ethg$o[0].channel typename "\"inet.node.ethernet.Eth100M\""
par CampusNetwork.branch2Host[13].ethg$o[0].channel disabled false
attr mutable ""
par CampusNetwork.branch2Host[13].ethg$o[0].channel delay 5e-08s
attr mutable ""
attr unit s
par CampusNetwork.branch2Host[13].ethg$o[0].channel datarate 1e+08bps
attr mutable ""
attr unit bps
par CampusNetwork.branch2Host[13].ethg$o[0].channel ber 0
attr mutable ""
par CampusNetwork.branch2Host[13].ethg$o[0].channel per 0
attr mutable ""
par CampusNetwork.branch2Host[13].ethg$o[0].channel enabledLineStyle "\"solid\""
par CampusNetwork.branch2Host[13].ethg$o[0].channel disabledLineStyle "\"dashed\""
par CampusNetwork.branch2Host[13].ethg$o[0].channel disabledIcon "\"status/cross\""
par CampusNetwork.branch2Host[13].ethg$o[0].channel length 10m
attr unit m
par CampusNetwork.branch2Switch.ethg$o[14].channel typename "\"inet.node.ethernet.Eth100M\""
par CampusNetwork.branch2Switch.ethg$o[14].channel disabled false
attr mutable ""
par CampusNetwork.branch2Switch.ethg$o[14].channel delay 5e-08s
attr mutable ""
attr unit s
par CampusNetwork.branch2Switch.ethg$o[14].channel datarate 1e+08bps
attr mutable ""
attr unit bps
par CampusNetwork.branch2Switch.ethg$o[14].channel ber 0
attr mutable ""
par CampusNetwork.branch2Switch.ethg$o[14].channel per 0
attr mutable ""
par CampusNetwork.branch2Switch.ethg$o[14].channel enabledLineStyle "\"solid\""
par CampusNetwork.branch2Switch.ethg$o[14].channel disabledLineStyle "\"dashed\""
par CampusNetwork.branch2Switch.ethg$o[14].channel disabledIcon "\"status/cross\""
par CampusNetwork.branch2Switch.ethg$o[14].channel length 10m
attr unit m
par CampusNetwork.branch2Host[14].ethg$o[0].channel typename "\"inet.node.ethernet.Eth100M\""
par CampusNetwork.branch2Host[14].ethg$o[0].channel disabled false
attr mutable ""
par CampusNetwork.branch2Host[14].ethg$o[0].channel delay 5e-08s
attr mutable ""
attr unit s
par CampusNetwork.branch2Host[14].ethg$o[0].channel datarate 1e+08bps
attr mutable ""
attr unit bps
par CampusNetwork.branch2Host[14].ethg$o[0].channel ber 0
attr mutable ""
par CampusNetwork.branch2Host[14].ethg$o[0].channel per 0
attr mutable ""
par CampusNetwork.branch2Host[14].ethg$o[0].channel enabledLineStyle "\"solid\""
par CampusNetwork.branch2Host[14].ethg$o[0].channel disabledLineStyle "\"dashed\""
par CampusNetwork.branch2Host[14].ethg$o[0].channel disabledIcon "\"status/cross\""
par CampusNetwork.branch2Host[14].ethg$o[0].channel length 10m
attr unit m
par CampusNetwork.branch2Switch.ethg$o[15].channel typename "\"inet.node.ethernet.Eth100M\""
par CampusNetwork.branch2Switch.ethg$o[15].channel disabled false
attr mutable ""
par CampusNetwork.branch2Switch.ethg$o[15].channel delay 5e-08s
attr mutable ""
attr unit s
par CampusNetwork.branch2Switch.ethg$o[15].channel datarate 1e+08bps
attr mutable ""
attr unit bps
par CampusNetwork.branch2Switch.ethg$o[15].channel ber 0
attr mutable ""
par CampusNetwork.branch2Switch.ethg$o[15].channel per 0
attr mutable ""
par CampusNetwork.branch2Switch.ethg$o[15].channel enabledLineStyle "\"solid\""
par CampusNetwork.branch2Switch.ethg$o[15].channel disabledLineStyle "\"dashed\""
par CampusNetwork.branch2Switch.ethg$o[15].channel disabledIcon "\"status/cross\""
par CampusNetwork.branch2Switch.ethg$o[15].channel length 10m
attr unit m
par CampusNetwork.configurator typename "\"inet.networklayer.configurator.ipv4.Ipv4NetworkConfigurator\""
par CampusNetwork.configurator displayStringTextFormat "\"\""
attr mutable ""
par CampusNetwork.configurator minLinkWeight 0.001
par CampusNetwork.configurator configureIsolatedNetworksSeparatly false
par CampusNetwork.configurator config "xml('<config>\\n  <interface address=\"10.x.x.x\" hosts=\"**\" netmask=\"255.x.x.x\"/>\\n</config>\\n')"
par CampusNetwork.configurator assignAddresses true
par CampusNetwork.configurator assignUniqueAddresses true
par CampusNetwork.configurator assignDisjunctSubnetAddresses true
par CampusNetwork.configurator addStaticRoutes true
par CampusNetwork.configurator addDefaultRoutes true
par CampusNetwork.configurator addSubnetRoutes true
par CampusNetwork.configurator addDirectRoutes true
par CampusNetwork.configurator optimizeRoutes true
par CampusNetwork.configurator updateRoutes false
par CampusNetwork.configurator dumpTopology false
par CampusNetwork.configurator dumpLinks false
par CampusNetwork.configurator dumpAddresses false
par CampusNetwork.configurator dumpRoutes false
par CampusNetwork.configurator dumpConfig "\"\""
par CampusNetwork.scenarioManager typename "\"inet.common.scenario.ScenarioManager\""
par CampusNetwork.scenarioManager displayStringTextFormat "\"total %c changes, %l left\\nnext at: %t\""
attr mutable ""
par CampusNetwork.scenarioManager script "xml('<scenario>\\n  <at t=\"10.0s\">\\n    <shutdown module=\"mainRouter\"/>\\n  </at>\\n</scenario>\\n')"
par CampusNetwork.internet.internalSwitch.eth[0].phys$o.channel typename "\"ned.IdealChannel\""
par CampusNetwork.internet.internalSwitch.ethg$i[0].channel typename "\"ned.IdealChannel\""
par CampusNetwork.internet.internalSwitch.eth[1].phys$o.channel typename "\"ned.IdealChannel\""
par CampusNetwork.internet.internalSwitch.ethg$i[1].channel typename "\"ned.IdealChannel\""
par CampusNetwork.internet.internalSwitch.eth[2].phys$o.channel typename "\"ned.IdealChannel\""
par CampusNetwork.internet.internalSwitch.ethg$i[2].channel typename "\"ned.IdealChannel\""
par CampusNetwork.internet.internalSwitch.eth[3].phys$o.channel typename "\"ned.IdealChannel\""
par CampusNetwork.internet.internalSwitch.ethg$i[3].channel typename "\"ned.IdealChannel\""
par CampusNetwork.internet.internalSwitch.macTable typename "\"inet.linklayer.ethernet.common.MacForwardingTable\""
par CampusNetwork.internet.internalSwitch.macTable displayStringTextFormat "\"addr: %a\\nvlan: %v\""
attr mutable ""
par CampusNetwork.internet.internalSwitch.macTable agingTime 120s
attr unit s
par CampusNetwork.internet.internalSwitch.macTable forwardingTable []
attr mutable ""
par CampusNetwork.internet.internalSwitch.macTable forwardingTableFile "\"\""
par CampusNetwork.internet.internalSwitch.macTable interfaceTableModule "\"CampusNetwork.internet.internalSwitch.interfaceTable\""
par CampusNetwork.internet.internalSwitch.interfaceTable typename "\"inet.networklayer.common.InterfaceTable\""
par CampusNetwork.internet.internalSwitch.interfaceTable displayStringTextFormat "\"\""
attr mutable ""
par CampusNetwork.internet.internalSwitch.interfaceTable displayAddresses false
par CampusNetwork.internet.internalSwitch.sc typename "\"inet.common.MessageDispatcher\""
par CampusNetwork.internet.internalSwitch.sc displayStringTextFormat "\"processed %p pk (%l)\""
attr mutable ""
par CampusNetwork.internet.internalSwitch.sc interfaceTableModule "\"CampusNetwork.internet.internalSwitch.interfaceTable\""
par CampusNetwork.internet.internalSwitch.sc forwardServiceRegistration true
par CampusNetwork.internet.internalSwitch.sc forwardProtocolRegistration true
par CampusNetwork.internet.internalSwitch.sc interfaceMapping {}
par CampusNetwork.internet.internalSwitch.sc serviceMapping {}
par CampusNetwork.internet.internalSwitch.sc protocolMapping {}
par CampusNetwork.internet.internalSwitch.cb typename "\"inet.common.MessageDispatcher\""
par CampusNetwork.internet.internalSwitch.cb displayStringTextFormat "\"processed %p pk (%l)\""
attr mutable ""
par CampusNetwork.internet.internalSwitch.cb interfaceTableModule "\"CampusNetwork.internet.internalSwitch.interfaceTable\""
par CampusNetwork.internet.internalSwitch.cb forwardServiceRegistration true
par CampusNetwork.internet.internalSwitch.cb forwardProtocolRegistration true
par CampusNetwork.internet.internalSwitch.cb interfaceMapping {}
par CampusNetwork.internet.internalSwitch.cb serviceMapping {}
par CampusNetwork.internet.internalSwitch.cb protocolMapping {}
par CampusNetwork.internet.internalSwitch.bridging typename "\"inet.linklayer.ieee8021d.relay.Ieee8021dRelay\""
par CampusNetwork.internet.internalSwitch.bridging displayStringTextFormat "\"proc: %p\\ndisc: %d\""
attr mutable ""
par CampusNetwork.internet.internalSwitch.bridging macTableModule "\"CampusNetwork.internet.internalSwitch.macTable\""
par CampusNetwork.internet.internalSwitch.bridging interfaceTableModule "\"CampusNetwork.internet.internalSwitch.interfaceTable\""
scalar CampusNetwork.internet.internalSwitch.bridging "processed frames" 0
scalar CampusNetwork.internet.internalSwitch.bridging "discarded frames" 0
scalar CampusNetwork.internet.internalSwitch.bridging "number of received BPDUs from STP module" 0
scalar CampusNetwork.internet.internalSwitch.bridging "number of received frames from network (including BPDUs)" 11759
scalar CampusNetwork.internet.internalSwitch.bridging "number of dropped frames (including BPDUs)" 0
scalar CampusNetwork.internet.internalSwitch.bridging "number of delivered BPDUs to the STP module" 0
scalar CampusNetwork.internet.internalSwitch.bridging "number of dispatched BPDU frames to the network" 0
scalar CampusNetwork.internet.internalSwitch.bridging "number of dispatched non-BDPU frames to the network" 0
scalar CampusNetwork.internet.internalSwitch.bridging packetDropped:count 0
attr interpolationmode none
attr recordingmode count
attr title "packets dropped, count"
scalar CampusNetwork.internet.internalSwitch.bridging packetDropped:sum(packetBytes) 0
attr interpolationmode none
attr recordingmode sum(packetBytes)
attr title "packets dropped, sum(packetBytes)"
par CampusNetwork.internet.internalSwitch.bl typename "\"inet.common.MessageDispatcher\""
par CampusNetwork.internet.internalSwitch.bl displayStringTextFormat "\"processed %p pk (%l)\""
attr mutable ""
par CampusNetwork.internet.internalSwitch.bl interfaceTableModule "\"CampusNetwork.internet.internalSwitch.interfaceTable\""
par CampusNetwork.internet.internalSwitch.bl forwardServiceRegistration true
par CampusNetwork.internet.internalSwitch.bl forwardProtocolRegistration true
par CampusNetwork.internet.internalSwitch.bl interfaceMapping {}
par CampusNetwork.internet.internalSwitch.bl serviceMapping {}
par CampusNetwork.internet.internalSwitch.bl protocolMapping {}
par CampusNetwork.internet.internalSwitch.ethernet typename "\"inet.linklayer.ethernet.basic.EthernetEncapsulation\""
par CampusNetwork.internet.internalSwitch.ethernet displayStringTextFormat "\"\""
attr mutable ""
par CampusNetwork.internet.internalSwitch.ethernet registerProtocol true
par CampusNetwork.internet.internalSwitch.ethernet interfaceTableModule "\"CampusNetwork.internet.internalSwitch.interfaceTable\""
par CampusNetwork.internet.internalSwitch.ethernet fcsMode "\"declared\""
attr enum declared,computed
par CampusNetwork.internet.internalSwitch.ethernet stopOperationExtraTime -1s
attr unit s
par CampusNetwork.internet.internalSwitch.ethernet stopOperationTimeout 2s
attr unit s
scalar CampusNetwork.internet.internalSwitch.ethernet pauseSent:count 0
attr recordingmode count
attr title "pause sent, count"
scalar CampusNetwork.internet.internalSwitch.ethernet pauseSent:sum 0
attr recordingmode sum
attr title "pause sent, sum"
scalar CampusNetwork.internet.internalSwitch.ethernet decapPk:count 11759
attr interpolationmode none
attr recordingmode count
attr source decapPk
attr title "packets decapsulated, count"
scalar CampusNetwork.internet.internalSwitch.ethernet decapPk:sum(packetBytes) 12082360
attr interpolationmode none
attr recordingmode sum(packetBytes)
attr source decapPk
attr title "packets decapsulated, sum(packetBytes)"
scalar CampusNetwork.internet.internalSwitch.ethernet encapPk:count 11763
attr interpolationmode none
attr recordingmode count
attr source encapPk
attr title "packets encapsulated, count"
scalar CampusNetwork.internet.internalSwitch.ethernet encapPk:sum(packetBytes) 12082544
attr interpolationmode none
attr recordingmode sum(packetBytes)
attr source encapPk
attr title "packets encapsulated, sum(packetBytes)"
par CampusNetwork.internet.internalSwitch.li typename "\"inet.common.MessageDispatcher\""
par CampusNetwork.internet.internalSwitch.li displayStringTextFormat "\"processed %p pk (%l)\""
attr mutable ""
par CampusNetwork.internet.internalSwitch.li interfaceTableModule "\"CampusNetwork.internet.internalSwitch.interfaceTable\""
par CampusNetwork.internet.internalSwitch.li forwardServiceRegistration true
par CampusNetwork.internet.internalSwitch.li forwardProtocolRegistration true
par CampusNetwork.internet.internalSwitch.li interfaceMapping {}
par CampusNetwork.internet.internalSwitch.li serviceMapping {}
par CampusNetwork.internet.internalSwitch.li protocolMapping {}
par CampusNetwork.internet.internalSwitch.eth[0].mac.phys$o.channel typename "\"ned.IdealChannel\""
par CampusNetwork.internet.internalSwitch.eth[0].phys$i.channel typename "\"ned.IdealChannel\""
par CampusNetwork.internet.internalSwitch.eth[0].upperLayerIn.channel typename "\"ned.IdealChannel\""
par CampusNetwork.internet.internalSwitch.eth[0].mac.upperLayerOut.channel typename "\"ned.IdealChannel\""
par CampusNetwork.internet.internalSwitch.eth[0].queue typename "\"inet.linklayer.ethernet.common.EthernetQueue\""
par CampusNetwork.internet.internalSwitch.eth[0].queue displayStringTextFormat "\"contains %p pk (%l) pushed %u\\npulled %o removed %r dropped %d\""
attr mutable ""
par CampusNetwork.internet.internalSwitch.eth[0].queue packetCapacity 1000
par CampusNetwork.internet.internalSwitch.eth[0].queue dataCapacity -1b
attr unit b
par CampusNetwork.internet.internalSwitch.eth[0].queue dropperClass "\"inet::queueing::PacketAtCollectionEndDropper\""
par CampusNetwork.internet.internalSwitch.eth[0].queue comparatorClass "\"inet::EthernetFrameTypeComparator\""
par CampusNetwork.internet.internalSwitch.eth[0].queue bufferModule "\"\""
scalar CampusNetwork.internet.internalSwitch.eth[0].queue queueLength:last 0
attr autoWarmupFilter false
attr interpolationmode sample-hold
attr recordingmode last
attr source "warmup(atomic(constant0(packetPushEnded) + count(packetPushStarted) - count(packetPulled) - count(packetRemoved) - count(packetDropped)))"
attr title "queue length, last"
attr unit pk
scalar CampusNetwork.internet.internalSwitch.eth[0].queue queueLength:max 1
attr autoWarmupFilter false
attr interpolationmode sample-hold
attr recordingmode max
attr source "warmup(atomic(constant0(packetPushEnded) + count(packetPushStarted) - count(packetPulled) - count(packetRemoved) - count(packetDropped)))"
attr title "queue length, max"
attr unit pk
scalar CampusNetwork.internet.internalSwitch.eth[0].queue queueLength:timeavg 2.132e-07
attr autoWarmupFilter false
attr interpolationmode sample-hold
attr recordingmode timeavg
attr source "warmup(atomic(constant0(packetPushEnded) + count(packetPushStarted) - count(packetPulled) - count(packetRemoved) - count(packetDropped)))"
attr title "queue length, timeavg"
attr unit pk
scalar CampusNetwork.internet.internalSwitch.eth[0].queue queueBitLength:last 0
attr autoWarmupFilter false
attr interpolationmode sample-hold
attr recordingmode last
[...]
par CampusNetwork.branch2Host[14].ipv4.igmp displayStringTextFormat "\"\""
attr mutable ""
par CampusNetwork.branch2Host[14].ipv4.igmp interfaceTableModule "\"CampusNetwork.branch2Host[14].interfaceTable\""
par CampusNetwork.branch2Host[14].ipv4.igmp routingTableModule "\"CampusNetwork.branch2Host[14].ipv4.routingTable\""
par CampusNetwork.branch2Host[14].ipv4.igmp checksumMode "\"declared\""
attr enum declared,computed
par CampusNetwork.branch2Host[14].ipv4.igmp enabled true
par CampusNetwork.branch2Host[14].ipv4.igmp robustnessVariable 2
par CampusNetwork.branch2Host[14].ipv4.igmp queryInterval 125s
attr unit s
par CampusNetwork.branch2Host[14].ipv4.igmp queryResponseInterval 10s
attr unit s
par CampusNetwork.branch2Host[14].ipv4.igmp groupMembershipInterval 260s
attr unit s
par CampusNetwork.branch2Host[14].ipv4.igmp otherQuerierPresentInterval 255s
attr unit s
par CampusNetwork.branch2Host[14].ipv4.igmp startupQueryInterval 31.25s
attr unit s
par CampusNetwork.branch2Host[14].ipv4.igmp startupQueryCount 2
par CampusNetwork.branch2Host[14].ipv4.igmp lastMemberQueryInterval 1s
attr unit s
par CampusNetwork.branch2Host[14].ipv4.igmp lastMemberQueryCount 2
par CampusNetwork.branch2Host[14].ipv4.igmp unsolicitedReportInterval 10s
attr unit s
par CampusNetwork.branch2Host[14].ipv4.icmp typename "\"inet.networklayer.ipv4.Icmp\""
par CampusNetwork.branch2Host[14].ipv4.icmp displayStringTextFormat "\"\""
attr mutable ""
par CampusNetwork.branch2Host[14].ipv4.icmp interfaceTableModule "\"CampusNetwork.branch2Host[14].interfaceTable\""
par CampusNetwork.branch2Host[14].ipv4.icmp routingTableModule "\"CampusNetwork.branch2Host[14].ipv4.routingTable\""
par CampusNetwork.branch2Host[14].ipv4.icmp checksumMode "\"declared\""
attr enum declared,computed
attr mutable ""
par CampusNetwork.branch2Host[14].ipv4.icmp quoteLength 8B
attr mutable ""
attr unit B
par CampusNetwork.branch2Host[14].ipv4.mp typename "\"inet.common.MessageDispatcher\""
par CampusNetwork.branch2Host[14].ipv4.mp displayStringTextFormat "\"processed %p pk (%l)\""
attr mutable ""
par CampusNetwork.branch2Host[14].ipv4.mp interfaceTableModule "\"CampusNetwork.branch2Host[14].interfaceTable\""
par CampusNetwork.branch2Host[14].ipv4.mp forwardServiceRegistration true
par CampusNetwork.branch2Host[14].ipv4.mp forwardProtocolRegistration true
par CampusNetwork.branch2Host[14].ipv4.mp interfaceMapping {}
par CampusNetwork.branch2Host[14].ipv4.mp serviceMapping {}
par CampusNetwork.branch2Host[14].ipv4.mp protocolMapping {}
par CampusNetwork.branch2Host[14].ipv4.ip typename "\"inet.networklayer.ipv4.Ipv4\""
par CampusNetwork.branch2Host[14].ipv4.ip displayStringTextFormat "\"\""
attr mutable ""
par CampusNetwork.branch2Host[14].ipv4.ip interfaceTableModule "\"CampusNetwork.branch2Host[14].interfaceTable\""
par CampusNetwork.branch2Host[14].ipv4.ip routingTableModule "\"CampusNetwork.branch2Host[14].ipv4.routingTable\""
par CampusNetwork.branch2Host[14].ipv4.ip arpModule "\"CampusNetwork.branch2Host[14].ipv4.arp\""
par CampusNetwork.branch2Host[14].ipv4.ip icmpModule "\"CampusNetwork.branch2Host[14].ipv4.icmp\""
par CampusNetwork.branch2Host[14].ipv4.ip checksumMode "\"declared\""
attr enum declared,computed
par CampusNetwork.branch2Host[14].ipv4.ip timeToLive 32
par CampusNetwork.branch2Host[14].ipv4.ip multicastTimeToLive 32
par CampusNetwork.branch2Host[14].ipv4.ip fragmentTimeout 60s
attr unit s
par CampusNetwork.branch2Host[14].ipv4.ip limitedBroadcast false
par CampusNetwork.branch2Host[14].ipv4.ip directBroadcastInterfaces "\"\""
par CampusNetwork.branch2Host[14].ipv4.ip enableLocalOutMulticastRouting false
par CampusNetwork.branch2Host[14].ipv4.ip enableTimestampOption false
par CampusNetwork.branch2Host[14].ipv4.ip maxLifetime -1s
attr unit s
scalar CampusNetwork.branch2Host[14].ipv4.ip packetDropAddressResolutionFailed:count 0
attr interpolationmode none
attr recordingmode count
attr source packetDropReasonIsAddressResolutionFailed(packetDropped)
attr title "packet drop: address resolution failed, count"
scalar CampusNetwork.branch2Host[14].ipv4.ip packetDropAddressResolutionFailed:sum(packetBytes) 0
attr interpolationmode none
attr recordingmode sum(packetBytes)
attr source packetDropReasonIsAddressResolutionFailed(packetDropped)
attr title "packet drop: address resolution failed, sum(packetBytes)"
scalar CampusNetwork.branch2Host[14].ipv4.ip packetDropHopLimitReached:count 0
attr interpolationmode none
attr recordingmode count
attr source packetDropReasonIsHopLimitReached(packetDropped)
attr title "packet drop: hop limit reached, count"
scalar CampusNetwork.branch2Host[14].ipv4.ip packetDropHopLimitReached:sum(packetBytes) 0
attr interpolationmode none
attr recordingmode sum(packetBytes)
attr source packetDropReasonIsHopLimitReached(packetDropped)
attr title "packet drop: hop limit reached, sum(packetBytes)"
scalar CampusNetwork.branch2Host[14].ipv4.ip packetDropForwardingDisabled:count 0
attr interpolationmode none
attr recordingmode count
attr source packetDropReasonIsForwardingDisabled(packetDropped)
attr title "packet drop: forwarding disabled, count"
scalar CampusNetwork.branch2Host[14].ipv4.ip packetDropForwardingDisabled:sum(packetBytes) 0
attr interpolationmode none
attr recordingmode sum(packetBytes)
attr source packetDropReasonIsForwardingDisabled(packetDropped)
attr title "packet drop: forwarding disabled, sum(packetBytes)"
scalar CampusNetwork.branch2Host[14].ipv4.ip packetDropLifetimeExpired:count 0
attr interpolationmode none
attr recordingmode count
attr source packetDropReasonIsLifetimeExpired(packetDropped)
attr title "packet drop: lifetime expired, count"
scalar CampusNetwork.branch2Host[14].ipv4.ip packetDropLifetimeExpired:sum(packetBytes) 0
attr interpolationmode none
attr recordingmode sum(packetBytes)
attr source packetDropReasonIsLifetimeExpired(packetDropped)
attr title "packet drop: lifetime expired, sum(packetBytes)"
scalar CampusNetwork.branch2Host[14].ipv4.ip packetDropNoInterfaceFound:count 0
attr interpolationmode none
attr recordingmode count
attr source packetDropReasonIsNoInterfaceFound(packetDropped)
attr title "packet drop: no interface found, count"
scalar CampusNetwork.branch2Host[14].ipv4.ip packetDropNoInterfaceFound:sum(packetBytes) 0
attr interpolationmode none
attr recordingmode sum(packetBytes)
attr source packetDropReasonIsNoInterfaceFound(packetDropped)
attr title "packet drop: no interface found, sum(packetBytes)"
scalar CampusNetwork.branch2Host[14].ipv4.ip packetDropNoRouteFound:count 0
attr interpolationmode none
attr recordingmode count
attr source packetDropReasonIsNoRouteFound(packetDropped)
attr title "packet drop: no route found, count"
scalar CampusNetwork.branch2Host[14].ipv4.ip packetDropNoRouteFound:sum(packetBytes) 0
attr interpolationmode none
attr recordingmode sum(packetBytes)
attr source packetDropReasonIsNoRouteFound(packetDropped)
attr title "packet drop: no route found, sum(packetBytes)"
scalar CampusNetwork.branch2Host[14].ipv4.ip packetDropUndefined:count 0
attr interpolationmode none
attr recordingmode count
attr source packetDropReasonIsUndefined(packetDropped)
attr title "packet drop: undefined, count"
scalar CampusNetwork.branch2Host[14].ipv4.ip packetDropUndefined:sum(packetBytes) 0
attr interpolationmode none
attr recordingmode sum(packetBytes)
attr source packetDropReasonIsUndefined(packetDropped)
attr title "packet drop: undefined, sum(packetBytes)"
par CampusNetwork.branch2Host[14].ipv4.arp typename "\"inet.networklayer.arp.ipv4.Arp\""
par CampusNetwork.branch2Host[14].ipv4.arp displayStringTextFormat "\"\""
attr mutable ""
par CampusNetwork.branch2Host[14].ipv4.arp interfaceTableModule "\"CampusNetwork.branch2Host[14].interfaceTable\""
par CampusNetwork.branch2Host[14].ipv4.arp routingTableModule "\"CampusNetwork.branch2Host[14].ipv4.routingTable\""
par CampusNetwork.branch2Host[14].ipv4.arp retryTimeout 1s
attr unit s
par CampusNetwork.branch2Host[14].ipv4.arp retryCount 3
par CampusNetwork.branch2Host[14].ipv4.arp cacheTimeout 120s
attr unit s
par CampusNetwork.branch2Host[14].ipv4.arp proxyArpInterfaces "\"\""
scalar CampusNetwork.branch2Host[14].ipv4.arp arpResolutionFailed:count 0
attr recordingmode count
attr title "ARP failed resolutions, count"
scalar CampusNetwork.branch2Host[14].ipv4.arp arpResolutionCompleted:count 1
attr recordingmode count
attr title "ARP completed resolutions, count"
scalar CampusNetwork.branch2Host[14].ipv4.arp arpResolutionInitiated:count 1
attr recordingmode count
attr title "ARP initiated resolutions, count"
scalar CampusNetwork.branch2Host[14].ipv4.arp arpReplySent:count 0
attr recordingmode count
attr source arpReplySent
attr title "ARP replies sent, count"
scalar CampusNetwork.branch2Host[14].ipv4.arp arpReplySent:sum(packetBytes) 0
attr recordingmode sum(packetBytes)
attr source arpReplySent
attr title "ARP replies sent, sum(packetBytes)"
scalar CampusNetwork.branch2Host[14].ipv4.arp arpRequestSent:count 1
attr recordingmode count
attr source arpRequestSent
attr title "ARP request sent, count"
scalar CampusNetwork.branch2Host[14].ipv4.arp arpRequestSent:sum(packetBytes) 28
attr recordingmode sum(packetBytes)
attr source arpRequestSent
attr title "ARP request sent, sum(packetBytes)"
par CampusNetwork.branch2Host[14].ipv4.lp typename "\"inet.common.MessageDispatcher\""
par CampusNetwork.branch2Host[14].ipv4.lp displayStringTextFormat "\"processed %p pk (%l)\""
attr mutable ""
par CampusNetwork.branch2Host[14].ipv4.lp interfaceTableModule "\"CampusNetwork.branch2Host[14].interfaceTable\""
par CampusNetwork.branch2Host[14].ipv4.lp forwardServiceRegistration true
par CampusNetwork.branch2Host[14].ipv4.lp forwardProtocolRegistration true
par CampusNetwork.branch2Host[14].ipv4.lp interfaceMapping {}
par CampusNetwork.branch2Host[14].ipv4.lp serviceMapping {}
par CampusNetwork.branch2Host[14].ipv4.lp protocolMapping {}
par CampusNetwork.branch2Host[14].ipv4 typename "\"inet.networklayer.ipv4.Ipv4NetworkLayer\""
par CampusNetwork.branch2Host[14].ipv4 displayStringTextFormat "\"%i\""
attr mutable ""
par CampusNetwork.branch2Host[14].ipv4 forwarding false
par CampusNetwork.branch2Host[14].ipv4 multicastForwarding false
par CampusNetwork.branch2Host[14].ipv4 hasIpsec false
par CampusNetwork.branch2Host[14].ipv4 interfaceTableModule "\"CampusNetwork.branch2Host[14].interfaceTable\""
par CampusNetwork.branch2Host[14].nl typename "\"inet.common.MessageDispatcher\""
par CampusNetwork.branch2Host[14].nl displayStringTextFormat "\"processed %p pk (%l)\""
attr mutable ""
par CampusNetwork.branch2Host[14].nl interfaceTableModule "\"CampusNetwork.branch2Host[14].interfaceTable\""
par CampusNetwork.branch2Host[14].nl forwardServiceRegistration true
par CampusNetwork.branch2Host[14].nl forwardProtocolRegistration true
par CampusNetwork.branch2Host[14].nl interfaceMapping {}
par CampusNetwork.branch2Host[14].nl serviceMapping {}
par CampusNetwork.branch2Host[14].nl protocolMapping {}
par CampusNetwork.branch2Host[14].udp typename "\"inet.transportlayer.udp.Udp\""
par CampusNetwork.branch2Host[14].udp displayStringTextFormat "\"\""
attr mutable ""
par CampusNetwork.branch2Host[14].udp interfaceTableModule "\"CampusNetwork.branch2Host[14].interfaceTable\""
par CampusNetwork.branch2Host[14].udp icmpModule "\"^.ipv4.icmp\""
par CampusNetwork.branch2Host[14].udp icmpv6Module "\"^.ipv6.icmpv6\""
par CampusNetwork.branch2Host[14].udp checksumMode "\"declared\""
attr enum disabled,declared,computed
par CampusNetwork.branch2Host[14].udp defaultMulticastLoop true
scalar CampusNetwork.branch2Host[14].udp packetReceived:count 0
attr interpolationmode none
attr recordingmode count
attr source packetReceived
attr title "packets received, count"
scalar CampusNetwork.branch2Host[14].udp packetReceived:sum(packetBytes) 0
attr interpolationmode none
attr recordingmode sum(packetBytes)
attr source packetReceived
attr title "packets received, sum(packetBytes)"
scalar CampusNetwork.branch2Host[14].udp packetSent:count 380
attr interpolationmode none
attr recordingmode count
attr source packetSent
attr title "packets sent, count"
scalar CampusNetwork.branch2Host[14].udp packetSent:sum(packetBytes) 383040
attr interpolationmode none
attr recordingmode sum(packetBytes)
attr source packetSent
attr title "packets sent, sum(packetBytes)"
scalar CampusNetwork.branch2Host[14].udp passedUpPk:count 0
attr interpolationmode none
attr recordingmode count
attr source packetSentToUpper
attr title "packets passed up, count"
scalar CampusNetwork.branch2Host[14].udp droppedPkWrongPort:count 0
attr interpolationmode none
attr recordingmode count
attr source packetDropReasonIsNoPortFound(packetDropped)
attr title "packets dropped (wrong port), count"
scalar CampusNetwork.branch2Host[14].udp droppedPkBadChecksum:count 0
attr interpolationmode none
attr recordingmode count
attr source packetDropReasonIsIncorrectlyReceived(packetDropped)
attr title "packets dropped (checksum error), count"
par CampusNetwork.branch2Host[14].tcp typename "\"inet.transportlayer.tcp.Tcp\""
par CampusNetwork.branch2Host[14].tcp displayStringTextFormat "\"\""
attr mutable ""
par CampusNetwork.branch2Host[14].tcp checksumMode "\"declared\""
attr enum declared,computed
par CampusNetwork.branch2Host[14].tcp advertisedWindow 7504
par CampusNetwork.branch2Host[14].tcp delayedAcksEnabled false
par CampusNetwork.branch2Host[14].tcp nagleEnabled true
par CampusNetwork.branch2Host[14].tcp limitedTransmitEnabled false
par CampusNetwork.branch2Host[14].tcp increasedIWEnabled false
par CampusNetwork.branch2Host[14].tcp sackSupport false
par CampusNetwork.branch2Host[14].tcp windowScalingSupport false
par CampusNetwork.branch2Host[14].tcp windowScalingFactor -1
par CampusNetwork.branch2Host[14].tcp timestampSupport false
par CampusNetwork.branch2Host[14].tcp mss 536
par CampusNetwork.branch2Host[14].tcp msl 120s
attr unit s
par CampusNetwork.branch2Host[14].tcp tcpAlgorithmClass "\"TcpReno\""
attr examples TcpVegas,TcpWestwood,DcTcp,TcpNewReno,TcpReno,TcpTahoe,TcpNoCongestionControl
par CampusNetwork.branch2Host[14].tcp dupthresh 3
par CampusNetwork.branch2Host[14].tcp initialSsthresh 4294967295
par CampusNetwork.branch2Host[14].tcp stopOperationExtraTime 0s
attr unit s
par CampusNetwork.branch2Host[14].tcp stopOperationTimeout 2s
attr unit s
par CampusNetwork.branch2Host[14].tcp ecnWillingness false
par CampusNetwork.branch2Host[14].tcp dctcpGamma 0.0625
par CampusNetwork.branch2Host[14].tn typename "\"inet.common.MessageDispatcher\""
par CampusNetwork.branch2Host[14].tn displayStringTextFormat "\"processed %p pk (%l)\""
attr mutable ""
par CampusNetwork.branch2Host[14].tn interfaceTableModule "\"CampusNetwork.branch2Host[14].interfaceTable\""
par CampusNetwork.branch2Host[14].tn forwardServiceRegistration true
par CampusNetwork.branch2Host[14].tn forwardProtocolRegistration true
par CampusNetwork.branch2Host[14].tn interfaceMapping {}
par CampusNetwork.branch2Host[14].tn serviceMapping {}
par CampusNetwork.branch2Host[14].tn protocolMapping {}
par CampusNetwork.branch2Host[14].app[0] typename "\"inet.applications.udpapp.UdpBasicApp\""
par CampusNetwork.branch2Host[14].app[0] displayStringTextFormat "\"\""
attr mutable ""
par CampusNetwork.branch2Host[14].app[0] interfaceTableModule "\"CampusNetwork.branch2Host[14].interfaceTable\""
par CampusNetwork.branch2Host[14].app[0] clockModule "\"\""
par CampusNetwork.branch2Host[14].app[0] localPort -1
par CampusNetwork.branch2Host[14].app[0] destAddresses "\"server2\""
par CampusNetwork.branch2Host[14].app[0] localAddress "\"\""
par CampusNetwork.branch2Host[14].app[0] packetName "\"UdpBasicAppData\""
par CampusNetwork.branch2Host[14].app[0] destPort 5001
par CampusNetwork.branch2Host[14].app[0] messageLength 1000B
attr unit B
par CampusNetwork.branch2Host[14].app[0] startTime 0s
attr unit s
par CampusNetwork.branch2Host[14].app[0] stopTime 39s
attr unit s
par CampusNetwork.branch2Host[14].app[0] sendInterval exponential(0.1s)
attr unit s
par CampusNetwork.branch2Host[14].app[0] timeToLive -1
par CampusNetwork.branch2Host[14].app[0] dontFragment false
par CampusNetwork.branch2Host[14].app[0] dscp -1
par CampusNetwork.branch2Host[14].app[0] tos -1
par CampusNetwork.branch2Host[14].app[0] multicastInterface "\"\""
par CampusNetwork.branch2Host[14].app[0] receiveBroadcast false
par CampusNetwork.branch2Host[14].app[0] joinLocalMulticastGroups false
par CampusNetwork.branch2Host[14].app[0] stopOperationExtraTime -1s
attr unit s
par CampusNetwork.branch2Host[14].app[0] stopOperationTimeout 2s
attr unit s
scalar CampusNetwork.branch2Host[14].app[0] "packets sent" 380
scalar CampusNetwork.branch2Host[14].app[0] "packets received" 0
scalar CampusNetwork.branch2Host[14].app[0] packetReceived:count 0
attr interpolationmode none
attr recordingmode count
attr source packetReceived
attr title "packets received, count"
scalar CampusNetwork.branch2Host[14].app[0] packetReceived:sum(packetBytes) 0
attr interpolationmode none
attr recordingmode sum(packetBytes)
attr source packetReceived
attr title "packets received, sum(packetBytes)"
statistic CampusNetwork.branch2Host[14].app[0] rcvdPkLifetime:stats
field count 0
field mean nan
field stddev nan
field min nan
field max nan
field sum 0
field sqrsum 0
attr interpolationmode none
attr recordingmode stats
attr source dataAge(packetReceived)
attr title "received packet lifetime"
attr unit s
scalar CampusNetwork.branch2Host[14].app[0] packetSent:count 380
attr interpolationmode none
attr recordingmode count
attr source packetSent
attr title "packets sent, count"
scalar CampusNetwork.branch2Host[14].app[0] packetSent:sum(packetBytes) 380000
attr interpolationmode none
attr recordingmode sum(packetBytes)
attr source packetSent
attr title "packets sent, sum(packetBytes)"
par CampusNetwork.branch2Host[14].at typename "\"inet.common.MessageDispatcher\""
par CampusNetwork.branch2Host[14].at displayStringTextFormat "\"processed %p pk (%l)\""
attr mutable ""
par CampusNetwork.branch2Host[14].at interfaceTableModule "\"CampusNetwork.branch2Host[14].interfaceTable\""
par CampusNetwork.branch2Host[14].at forwardServiceRegistration true
par CampusNetwork.branch2Host[14].at forwardProtocolRegistration true
par CampusNetwork.branch2Host[14].at interfaceMapping {}
par CampusNetwork.branch2Host[14].at serviceMapping {}
par CampusNetwork.branch2Host[14].at protocolMapping {}
par CampusNetwork.branch2Host[14] typename "\"inet.node.inet.StandardHost\""
par CampusNetwork.branch2Host[14] displayStringTextFormat "\"\""
attr mutable ""
par CampusNetwork.branch2Host[14] hasStatus false
par CampusNetwork.branch2Host[14] hasEnvironment false
par CampusNetwork.branch2Host[14] osgModel "\"\""
par CampusNetwork.branch2Host[14] osgModelColor "\"\""
par CampusNetwork.branch2Host[14] canvasImage "\"\""
par CampusNetwork.branch2Host[14] canvasImageColor "\"\""
par CampusNetwork.branch2Host[14] recordPcap false
par CampusNetwork.branch2Host[14] numPcapRecorders 0
par CampusNetwork.branch2Host[14] numLoInterfaces 1
par CampusNetwork.branch2Host[14] numWlanInterfaces 0
par CampusNetwork.branch2Host[14] numEthInterfaces 0
par CampusNetwork.branch2Host[14] numPppInterfaces 0
par CampusNetwork.branch2Host[14] numTunInterfaces 0
par CampusNetwork.branch2Host[14] numVirtInterfaces 0
par CampusNetwork.branch2Host[14] fcsMode "\"declared\""
attr enum declared,computed
par CampusNetwork.branch2Host[14] hasIpv4 true
par CampusNetwork.branch2Host[14] hasIpv6 false
par CampusNetwork.branch2Host[14] hasGn false
par CampusNetwork.branch2Host[14] forwarding false
par CampusNetwork.branch2Host[14] multicastForwarding false
par CampusNetwork.branch2Host[14] hasUdp true
par CampusNetwork.branch2Host[14] hasTcp true
par CampusNetwork.branch2Host[14] hasSctp false
par CampusNetwork.branch2Host[14] hasQuic false
par CampusNetwork.branch2Host[14] numApps 1
par CampusNetwork typename "\"simulations.ned.CampusNetwork\""
par CampusNetwork numBranch1Hosts 15
par CampusNetwork numBranch2Hosts 15

