file 35818593 1779990408                                        
version 3
run Base-0-20260528-21:46:44-86862
attr configname Base
attr datetime 20260528-21:46:44
attr datetimef 20260528-214644
attr experiment Base
attr inifile omnetpp.ini
attr iterationvars ""
attr iterationvarsd ""
attr iterationvarsf ""
attr measurement ""
attr network simulations.ned.CampusNetwork
attr processid 86862
attr repetition 0
attr replication #0
attr resultdir results
attr runnumber 0
attr seedset 0
config description "Đ\xFFĐ°Đ·ĐľĐ˛Đ°Ń\xFF Ń\xFFĐµŃ\xFFŃ\xFF"
config *.numBranch1Hosts 15
config *.numBranch2Hosts 15
config *.branch1Host[*].app[*].messageLength 1000B
config *.branch1Host[*].app[*].sendInterval exponential(0.1s)
config *.branch2Host[*].app[*].messageLength 1000B
config *.branch2Host[*].app[*].sendInterval exponential(0.1s)
config network simulations.ned.CampusNetwork
config sim-time-limit 40s
config repeat 5
config seed-set 0
config **.crcMode "\"declared\""
config **.fcsMode "\"declared\""
config **.ipv4.checksum.typename InternetChecksum
config *.configurator.typename inet.networklayer.configurator.ipv4.Ipv4NetworkConfigurator
config *.configurator.addStaticRoutes true
config *.configurator.assignDisjunctSubnetAddresses true
config *.configurator.addDefaultRoutes true
config *.server1.numApps 1
config *.server1.app[*].typename UdpSink
config *.server1.app[*].localPort 5000
config *.server2.numApps 1
config *.server2.app[*].typename UdpSink
config *.server2.app[*].localPort 5001
config *.numBranch1Hosts 20
config *.numBranch2Hosts 20
config *.branch1Host[*].numApps 1
config *.branch1Host[*].app[*].typename UdpBasicApp
config *.branch1Host[*].app[*].destAddresses "\"server1\""
config *.branch1Host[*].app[*].destPort 5000
config *.branch1Host[*].app[*].startTime 0s
config *.branch1Host[*].app[*].stopTime 39s
config *.branch1Host[*].app[*].messageLength 1200B
config *.branch1Host[*].app[*].sendInterval exponential(0.07s)
config *.branch2Host[*].numApps 1
config *.branch2Host[*].app[*].typename UdpBasicApp
config *.branch2Host[*].app[*].destAddresses "\"server2\""
config *.branch2Host[*].app[*].destPort 5001
config *.branch2Host[*].app[*].startTime 0s
config *.branch2Host[*].app[*].stopTime 39s
config *.branch2Host[*].app[*].messageLength 1200B
config *.branch2Host[*].app[*].sendInterval exponential(0.07s)
config **.vector-recording true
config **.scalar-recording true
config **.endToEndDelay.vector-recording true
config *.scenarioManager.script "xml(\"<scenario><at t='10.0s'><shutdown module='mainRouter'/></at></scenario>\")"

vector 0 CampusNetwork.internet.internalSwitch.bridging packetDropped:vector(packetBytes) ETV
attr interpolationmode none
attr recordingmode vector(packetBytes)
attr title "packets dropped, packetBytes"
vector 1 CampusNetwork.internet.internalSwitch.ethernet encapPk:vector(packetBytes) ETV
attr interpolationmode none
attr recordingmode vector(packetBytes)
attr source encapPk
attr title "packets encapsulated, packetBytes"
vector 2 CampusNetwork.internet.internalSwitch.ethernet decapPk:vector(packetBytes) ETV
attr interpolationmode none
attr recordingmode vector(packetBytes)
attr source decapPk
attr title "packets decapsulated, packetBytes"
vector 3 CampusNetwork.internet.internalSwitch.ethernet pauseSent:vector ETV
attr recordingmode vector
attr title "pause sent"
vector 4 CampusNetwork.internet.internalSwitch.eth[0].queue queueLength:vector ETV
attr autoWarmupFilter false
attr interpolationmode sample-hold
attr recordingmode vector
attr source "warmup(atomic(constant0(packetPushEnded) + count(packetPushStarted) - count(packetPulled) - count(packetRemoved) - count(packetDropped)))"
attr title "queue length"
attr unit pk
vector 5 CampusNetwork.internet.internalSwitch.eth[0].queue queueBitLength:vector ETV
attr autoWarmupFilter false
attr interpolationmode sample-hold
attr recordingmode vector
attr source "warmup(atomic(constant0(packetPushEnded) + sum(packetLength(packetPushStarted)) - sum(packetLength(packetPulled)) - sum(packetLength(packetRemoved)) - sum(packetLength(packetDropped))))"
attr title "queue bit length"
attr unit b
vector 6 CampusNetwork.internet.internalSwitch.eth[0].queue queueingTime:vector ETV
attr interpolationmode none
attr recordingmode vector
attr source queueingTime(packetPulled)
attr title "queueing times"
attr unit s
vector 7 CampusNetwork.internet.internalSwitch.eth[0].queue incomingPacketLengths:vector ETV
attr interpolationmode none
attr recordingmode vector
attr source packetLength(packetPushStarted)
attr title "incoming packet lengths"
attr unit b
vector 8 CampusNetwork.internet.internalSwitch.eth[0].queue incomingDataRate:vector ETV
attr interpolationmode linear
attr recordingmode vector
attr source throughput(packetPushStarted)
attr title "incoming datarate"
attr unit bps
vector 9 CampusNetwork.internet.internalSwitch.eth[0].queue outgoingPacketLengths:vector ETV
attr interpolationmode none
attr recordingmode vector
attr source packetLength(packetPulled)
attr title "outgoing packet lengths"
attr unit b
vector 10 CampusNetwork.internet.internalSwitch.eth[0].queue outgoingDataRate:vector ETV
attr interpolationmode linear
attr recordingmode vector
attr source throughput(packetPulled)
attr title "outgoing datarate"
attr unit bps
vector 11 CampusNetwork.internet.internalSwitch.eth[0].queue droppedPacketLengthsQueueOverflow:vector ETV
attr interpolationmode none
attr recordingmode vector
attr source packetLength(packetDropReasonIsQueueOverflow(packetDropped))
attr title "dropped packet lengths: queue overflow"
attr unit b
vector 12 CampusNetwork.internet.internalSwitch.eth[0].queue flowQueueingTime:vector ETV
attr interpolationmode none
attr recordingmode vector
attr source queueingTime(demuxFlow(packetPulled))
attr title "flow queueing times"
attr unit s
vector 13 CampusNetwork.internet.internalSwitch.eth[0].queue flowIncomingDataRate:vector ETV
attr interpolationmode linear
attr recordingmode vector
attr source throughput(flowPacketLength(demuxFlow(packetPushStarted)))
attr title "flow specific incoming data rate"
attr unit bps
vector 14 CampusNetwork.internet.internalSwitch.eth[0].queue flowOutgoingDataRate:vector ETV
attr interpolationmode linear
attr recordingmode vector
attr source throughput(flowPacketLength(demuxFlow(packetPulled)))
attr title "flow specific outgoing data rate"
attr unit bps
vector 15 CampusNetwork.internet.internalSwitch.eth[0].mac transmitting:vector ETV
attr interpolationmode sample-hold
attr recordingmode vector
attr source "count(transmissionStarted) - count(transmissionEnded)"
attr title "transmitting state"
attr type int
vector 16 CampusNetwork.internet.internalSwitch.eth[0].mac throughput:vector ETV
attr interpolationmode linear
attr recordingmode vector
attr source throughput(transmissionEnded)
attr title throughput
attr unit bps
vector 17 CampusNetwork.internet.internalSwitch.eth[0].mac utilization:vector ETV
attr interpolationmode linear
attr recordingmode vector
attr source "100 * utilization(count(transmissionStarted) - count(transmissionEnded))"
attr title utilization
attr unit %
vector 18 CampusNetwork.internet.internalSwitch.eth[0].mac txPk:vector(packetBytes) ETV
attr interpolationmode none
attr recordingmode vector(packetBytes)
attr source packetSentToLower
attr title "packets transmitted, packetBytes"
vector 19 CampusNetwork.internet.internalSwitch.eth[0].mac rxPkOk:vector(packetBytes) ETV
attr interpolationmode none
attr recordingmode vector(packetBytes)
attr source rxPkOk
attr title "packets received OK, packetBytes"
vector 20 CampusNetwork.internet.internalSwitch.eth[0].mac passedUpPk:vector(packetBytes) ETV
attr interpolationmode none
attr recordingmode vector(packetBytes)
attr source packetSentToUpper
attr title "packets passed to higher layer, packetBytes"
vector 21 CampusNetwork.internet.internalSwitch.eth[0].mac txPausePkUnits:vector ETV
attr interpolationmode none
attr recordingmode vector
attr title "pause units sent"
vector 22 CampusNetwork.internet.internalSwitch.eth[0].mac rxPausePkUnits:vector ETV
attr interpolationmode none
attr recordingmode vector
attr title "pause units received"
vector 23 CampusNetwork.internet.internalSwitch.eth[0].mac packetReceivedFromUpper:vector(packetBytes) ETV
attr interpolationmode none
attr recordingmode vector(packetBytes)
attr source packetReceivedFromUpper
attr title "packet bytes from higher layer, packetBytes"
vector 24 CampusNetwork.internet.internalSwitch.eth[0].mac packetDropIncorrectlyReceived:vector(packetBytes) ETV
attr interpolationmode none
attr recordingmode vector(packetBytes)
attr source packetDropReasonIsIncorrectlyReceived(packetDropped)
attr title "packet drop: incorrectly received, packetBytes"
vector 25 CampusNetwork.internet.internalSwitch.eth[0].mac packetDropInterfaceDown:vector(packetBytes) ETV
attr interpolationmode none
attr recordingmode vector(packetBytes)
attr source packetDropReasonIsInterfaceDown(packetDropped)
attr title "packet drop: interface down, packetBytes"
vector 26 CampusNetwork.internet.internalSwitch.eth[0].mac packetDropNotAddressedToUs:vector(packetBytes) ETV
attr interpolationmode none
attr recordingmode vector(packetBytes)
attr source packetDropReasonIsNotAddressedToUs(packetDropped)
attr title "packet drop: not addressed to us, packetBytes"
vector 27 CampusNetwork.internet.internalSwitch.eth[0] packetDropInterfaceDown:vector(packetBytes) ETV
attr interpolationmode none
attr recordingmode vector(packetBytes)
attr source packetDropReasonIsInterfaceDown(packetDropped)
attr title "packet drops: interface down, packetBytes"
vector 28 CampusNetwork.internet.internalSwitch.eth[0] packetDropNoCarrier:vector(packetBytes) ETV
attr interpolationmode none
attr recordingmode vector(packetBytes)
attr source packetDropReasonIsNoCarrier(packetDropped)
attr title "packet drops: no carrier, packetBytes"
vector 29 CampusNetwork.internet.internalSwitch.eth[1].queue queueLength:vector ETV
attr autoWarmupFilter false
attr interpolationmode sample-hold
attr recordingmode vector
attr source "warmup(atomic(constant0(packetPushEnded) + count(packetPushStarted) - count(packetPulled) - count(packetRemoved) - count(packetDropped)))"
attr title "queue length"
attr unit pk
vector 30 CampusNetwork.internet.internalSwitch.eth[1].queue queueBitLength:vector ETV
attr autoWarmupFilter false
attr interpolationmode sample-hold
attr recordingmode vector
attr source "warmup(atomic(constant0(packetPushEnded) + sum(packetLength(packetPushStarted)) - sum(packetLength(packetPulled)) - sum(packetLength(packetRemoved)) - sum(packetLength(packetDropped))))"
attr title "queue bit length"
attr unit b
vector 31 CampusNetwork.internet.internalSwitch.eth[1].queue queueingTime:vector ETV
attr interpolationmode none
attr recordingmode vector
attr source queueingTime(packetPulled)
attr title "queueing times"
attr unit s
vector 32 CampusNetwork.internet.internalSwitch.eth[1].queue incomingPacketLengths:vector ETV
attr interpolationmode none
attr recordingmode vector
attr source packetLength(packetPushStarted)
attr title "incoming packet lengths"
attr unit b
vector 33 CampusNetwork.internet.internalSwitch.eth[1].queue incomingDataRate:vector ETV
attr interpolationmode linear
attr recordingmode vector
attr source throughput(packetPushStarted)
attr title "incoming datarate"
attr unit bps
vector 34 CampusNetwork.internet.internalSwitch.eth[1].queue outgoingPacketLengths:vector ETV
attr interpolationmode none
attr recordingmode vector
attr source packetLength(packetPulled)
attr title "outgoing packet lengths"
attr unit b
vector 35 CampusNetwork.internet.internalSwitch.eth[1].queue outgoingDataRate:vector ETV
attr interpolationmode linear
attr recordingmode vector
attr source throughput(packetPulled)
attr title "outgoing datarate"
attr unit bps
vector 36 CampusNetwork.internet.internalSwitch.eth[1].queue droppedPacketLengthsQueueOverflow:vector ETV
attr interpolationmode none
attr recordingmode vector
attr source packetLength(packetDropReasonIsQueueOverflow(packetDropped))
attr title "dropped packet lengths: queue overflow"
attr unit b
vector 37 CampusNetwork.internet.internalSwitch.eth[1].queue flowQueueingTime:vector ETV
attr interpolationmode none
attr recordingmode vector
attr source queueingTime(demuxFlow(packetPulled))
attr title "flow queueing times"
attr unit s
vector 38 CampusNetwork.internet.internalSwitch.eth[1].queue flowIncomingDataRate:vector ETV
attr interpolationmode linear
attr recordingmode vector
attr source throughput(flowPacketLength(demuxFlow(packetPushStarted)))
attr title "flow specific incoming data rate"
attr unit bps
vector 39 CampusNetwork.internet.internalSwitch.eth[1].queue flowOutgoingDataRate:vector ETV
attr interpolationmode linear
attr recordingmode vector
attr source throughput(flowPacketLength(demuxFlow(packetPulled)))
attr title "flow specific outgoing data rate"
attr unit bps
vector 40 CampusNetwork.internet.internalSwitch.eth[1].mac transmitting:vector ETV
attr interpolationmode sample-hold
attr recordingmode vector
attr source "count(transmissionStarted) - count(transmissionEnded)"
attr title "transmitting state"
attr type int
vector 41 CampusNetwork.internet.internalSwitch.eth[1].mac throughput:vector ETV
attr interpolationmode linear
attr recordingmode vector
attr source throughput(transmissionEnded)
attr title throughput
attr unit bps
vector 42 CampusNetwork.internet.internalSwitch.eth[1].mac utilization:vector ETV
attr interpolationmode linear
attr recordingmode vector
attr source "100 * utilization(count(transmissionStarted) - count(transmissionEnded))"
attr title utilization
attr unit %
vector 43 CampusNetwork.internet.internalSwitch.eth[1].mac txPk:vector(packetBytes) ETV
attr interpolationmode none
attr recordingmode vector(packetBytes)
attr source packetSentToLower
attr title "packets transmitted, packetBytes"
vector 44 CampusNetwork.internet.internalSwitch.eth[1].mac rxPkOk:vector(packetBytes) ETV
attr interpolationmode none
attr recordingmode vector(packetBytes)
attr source rxPkOk
attr title "packets received OK, packetBytes"
vector 45 CampusNetwork.internet.internalSwitch.eth[1].mac passedUpPk:vector(packetBytes) ETV
attr interpolationmode none
attr recordingmode vector(packetBytes)
attr source packetSentToUpper
attr title "packets passed to higher layer, packetBytes"
vector 46 CampusNetwork.internet.internalSwitch.eth[1].mac txPausePkUnits:vector ETV
attr interpolationmode none
attr recordingmode vector
attr title "pause units sent"
vector 47 CampusNetwork.internet.internalSwitch.eth[1].mac rxPausePkUnits:vector ETV
attr interpolationmode none
attr recordingmode vector
attr title "pause units received"
vector 48 CampusNetwork.internet.internalSwitch.eth[1].mac packetReceivedFromUpper:vector(packetBytes) ETV
attr interpolationmode none
attr recordingmode vector(packetBytes)
attr source packetReceivedFromUpper
attr title "packet bytes from higher layer, packetBytes"
vector 49 CampusNetwork.internet.internalSwitch.eth[1].mac packetDropIncorrectlyReceived:vector(packetBytes) ETV
attr interpolationmode none
attr recordingmode vector(packetBytes)
attr source packetDropReasonIsIncorrectlyReceived(packetDropped)
attr title "packet drop: incorrectly received, packetBytes"
vector 50 CampusNetwork.internet.internalSwitch.eth[1].mac packetDropInterfaceDown:vector(packetBytes) ETV
attr interpolationmode none
attr recordingmode vector(packetBytes)
attr source packetDropReasonIsInterfaceDown(packetDropped)
attr title "packet drop: interface down, packetBytes"
vector 51 CampusNetwork.internet.internalSwitch.eth[1].mac packetDropNotAddressedToUs:vector(packetBytes) ETV
attr interpolationmode none
attr recordingmode vector(packetBytes)
attr source packetDropReasonIsNotAddressedToUs(packetDropped)
attr title "packet drop: not addressed to us, packetBytes"
vector 52 CampusNetwork.internet.internalSwitch.eth[1] packetDropInterfaceDown:vector(packetBytes) ETV
attr interpolationmode none
attr recordingmode vector(packetBytes)
attr source packetDropReasonIsInterfaceDown(packetDropped)
attr title "packet drops: interface down, packetBytes"
vector 53 CampusNetwork.internet.internalSwitch.eth[1] packetDropNoCarrier:vector(packetBytes) ETV
attr interpolationmode none
attr recordingmode vector(packetBytes)
attr source packetDropReasonIsNoCarrier(packetDropped)
attr title "packet drops: no carrier, packetBytes"
vector 54 CampusNetwork.internet.internalSwitch.eth[2].queue queueLength:vector ETV
attr autoWarmupFilter false
attr interpolationmode sample-hold
attr recordingmode vector
attr source "warmup(atomic(constant0(packetPushEnded) + count(packetPushStarted) - count(packetPulled) - count(packetRemoved) - count(packetDropped)))"
attr title "queue length"
attr unit pk
vector 55 CampusNetwork.internet.internalSwitch.eth[2].queue queueBitLength:vector ETV
attr autoWarmupFilter false
attr interpolationmode sample-hold
attr recordingmode vector
attr source "warmup(atomic(constant0(packetPushEnded) + sum(packetLength(packetPushStarted)) - sum(packetLength(packetPulled)) - sum(packetLength(packetRemoved)) - sum(packetLength(packetDropped))))"
attr title "queue bit length"
attr unit b
vector 56 CampusNetwork.internet.internalSwitch.eth[2].queue queueingTime:vector ETV
attr interpolationmode none
attr recordingmode vector
attr source queueingTime(packetPulled)
attr title "queueing times"
attr unit s
vector 57 CampusNetwork.internet.internalSwitch.eth[2].queue incomingPacketLengths:vector ETV
attr interpolationmode none
attr recordingmode vector
attr source packetLength(packetPushStarted)
attr title "incoming packet lengths"
attr unit b
vector 58 CampusNetwork.internet.internalSwitch.eth[2].queue incomingDataRate:vector ETV
attr interpolationmode linear
attr recordingmode vector
attr source throughput(packetPushStarted)
attr title "incoming datarate"
attr unit bps
vector 59 CampusNetwork.internet.internalSwitch.eth[2].queue outgoingPacketLengths:vector ETV
attr interpolationmode none
attr recordingmode vector
attr source packetLength(packetPulled)
attr title "outgoing packet lengths"
attr unit b
vector 60 CampusNetwork.internet.internalSwitch.eth[2].queue outgoingDataRate:vector ETV
attr interpolationmode linear
attr recordingmode vector
attr source throughput(packetPulled)
attr title "outgoing datarate"
attr unit bps
vector 61 CampusNetwork.internet.internalSwitch.eth[2].queue droppedPacketLengthsQueueOverflow:vector ETV
attr interpolationmode none
attr recordingmode vector
attr source packetLength(packetDropReasonIsQueueOverflow(packetDropped))
attr title "dropped packet lengths: queue overflow"
attr unit b
vector 62 CampusNetwork.internet.internalSwitch.eth[2].queue flowQueueingTime:vector ETV
attr interpolationmode none
attr recordingmode vector
attr source queueingTime(demuxFlow(packetPulled))
attr title "flow queueing times"
attr unit s
vector 63 CampusNetwork.internet.internalSwitch.eth[2].queue flowIncomingDataRate:vector ETV
attr interpolationmode linear
attr recordingmode vector
attr source throughput(flowPacketLength(demuxFlow(packetPushStarted)))
attr title "flow specific incoming data rate"
attr unit bps
vector 64 CampusNetwork.internet.internalSwitch.eth[2].queue flowOutgoingDataRate:vector ETV
attr interpolationmode linear
attr recordingmode vector
attr source throughput(flowPacketLength(demuxFlow(packetPulled)))
attr title "flow specific outgoing data rate"
attr unit bps
vector 65 CampusNetwork.internet.internalSwitch.eth[2].mac transmitting:vector ETV
attr interpolationmode sample-hold
attr recordingmode vector
attr source "count(transmissionStarted) - count(transmissionEnded)"
attr title "transmitting state"
attr type int
vector 66 CampusNetwork.internet.internalSwitch.eth[2].mac throughput:vector ETV
attr interpolationmode linear
attr recordingmode vector
attr source throughput(transmissionEnded)
attr title throughput
attr unit bps
vector 67 CampusNetwork.internet.internalSwitch.eth[2].mac utilization:vector ETV
attr interpolationmode linear
attr recordingmode vector
attr source "100 * utilization(count(transmissionStarted) - count(transmissionEnded))"
attr title utilization
attr unit %
vector 68 CampusNetwork.internet.internalSwitch.eth[2].mac txPk:vector(packetBytes) ETV
attr interpolationmode none
attr recordingmode vector(packetBytes)
attr source packetSentToLower
attr title "packets transmitted, packetBytes"
vector 69 CampusNetwork.internet.internalSwitch.eth[2].mac rxPkOk:vector(packetBytes) ETV
attr interpolationmode none
attr recordingmode vector(packetBytes)
attr source rxPkOk
attr title "packets received OK, packetBytes"
vector 70 CampusNetwork.internet.internalSwitch.eth[2].mac passedUpPk:vector(packetBytes) ETV
attr interpolationmode none
attr recordingmode vector(packetBytes)
attr source packetSentToUpper
attr title "packets passed to higher layer, packetBytes"
vector 71 CampusNetwork.internet.internalSwitch.eth[2].mac txPausePkUnits:vector ETV
attr interpolationmode none
attr recordingmode vector
attr title "pause units sent"
vector 72 CampusNetwork.internet.internalSwitch.eth[2].mac rxPausePkUnits:vector ETV
attr interpolationmode none
attr recordingmode vector
attr title "pause units received"
vector 73 CampusNetwork.internet.internalSwitch.eth[2].mac packetReceivedFromUpper:vector(packetBytes) ETV
attr interpolationmode none
attr recordingmode vector(packetBytes)
attr source packetReceivedFromUpper
attr title "packet bytes from higher layer, packetBytes"
vector 74 CampusNetwork.internet.internalSwitch.eth[2].mac packetDropIncorrectlyReceived:vector(packetBytes) ETV
attr interpolationmode none
attr recordingmode vector(packetBytes)
attr source packetDropReasonIsIncorrectlyReceived(packetDropped)
attr title "packet drop: incorrectly received, packetBytes"
vector 75 CampusNetwork.internet.internalSwitch.eth[2].mac packetDropInterfaceDown:vector(packetBytes) ETV
attr interpolationmode none
attr recordingmode vector(packetBytes)
attr source packetDropReasonIsInterfaceDown(packetDropped)
attr title "packet drop: interface down, packetBytes"
vector 76 CampusNetwork.internet.internalSwitch.eth[2].mac packetDropNotAddressedToUs:vector(packetBytes) ETV
attr interpolationmode none
attr recordingmode vector(packetBytes)
attr source packetDropReasonIsNotAddressedToUs(packetDropped)
attr title "packet drop: not addressed to us, packetBytes"
vector 77 CampusNetwork.internet.internalSwitch.eth[2] packetDropInterfaceDown:vector(packetBytes) ETV
attr interpolationmode none
attr recordingmode vector(packetBytes)
attr source packetDropReasonIsInterfaceDown(packetDropped)
attr title "packet drops: interface down, packetBytes"
vector 78 CampusNetwork.internet.internalSwitch.eth[2] packetDropNoCarrier:vector(packetBytes) ETV
attr interpolationmode none
attr recordingmode vector(packetBytes)
attr source packetDropReasonIsNoCarrier(packetDropped)
attr title "packet drops: no carrier, packetBytes"
vector 79 CampusNetwork.internet.internalSwitch.eth[3].queue queueLength:vector ETV
attr autoWarmupFilter false
attr interpolationmode sample-hold
attr recordingmode vector
attr source "warmup(atomic(constant0(packetPushEnded) + count(packetPushStarted) - count(packetPulled) - count(packetRemoved) - count(packetDropped)))"
attr title "queue length"
attr unit pk
vector 80 CampusNetwork.internet.internalSwitch.eth[3].queue queueBitLength:vector ETV
attr autoWarmupFilter false
attr interpolationmode sample-hold
attr recordingmode vector
attr source "warmup(atomic(constant0(packetPushEnded) + sum(packetLength(packetPushStarted)) - sum(packetLength(packetPulled)) - sum(packetLength(packetRemoved)) - sum(packetLength(packetDropped))))"
attr title "queue bit length"
attr unit b
vector 81 CampusNetwork.internet.internalSwitch.eth[3].queue queueingTime:vector ETV
attr interpolationmode none
attr recordingmode vector
attr source queueingTime(packetPulled)
attr title "queueing times"
attr unit s
vector 82 CampusNetwork.internet.internalSwitch.eth[3].queue incomingPacketLengths:vector ETV
attr interpolationmode none
attr recordingmode vector
attr source packetLength(packetPushStarted)
attr title "incoming packet lengths"
attr unit b
vector 83 CampusNetwork.internet.internalSwitch.eth[3].queue incomingDataRate:vector ETV
attr interpolationmode linear
attr recordingmode vector
attr source throughput(packetPushStarted)
attr title "incoming datarate"
attr unit bps
vector 84 CampusNetwork.internet.internalSwitch.eth[3].queue outgoingPacketLengths:vector ETV
attr interpolationmode none
attr recordingmode vector
attr source packetLength(packetPulled)
attr title "outgoing packet lengths"
attr unit b
vector 85 CampusNetwork.internet.internalSwitch.eth[3].queue outgoingDataRate:vector ETV
attr interpolationmode linear
attr recordingmode vector
attr source throughput(packetPulled)
attr title "outgoing datarate"
attr unit bps
vector 86 CampusNetwork.internet.internalSwitch.eth[3].queue droppedPacketLengthsQueueOverflow:vector ETV
attr interpolationmode none
attr recordingmode vector
attr source packetLength(packetDropReasonIsQueueOverflow(packetDropped))
attr title "dropped packet lengths: queue overflow"
attr unit b
vector 87 CampusNetwork.internet.internalSwitch.eth[3].queue flowQueueingTime:vector ETV
attr interpolationmode none
attr recordingmode vector
attr source queueingTime(demuxFlow(packetPulled))
attr title "flow queueing times"
attr unit s
vector 88 CampusNetwork.internet.internalSwitch.eth[3].queue flowIncomingDataRate:vector ETV
attr interpolationmode linear
attr recordingmode vector
attr source throughput(flowPacketLength(demuxFlow(packetPushStarted)))
attr title "flow specific incoming data rate"
attr unit bps
vector 89 CampusNetwork.internet.internalSwitch.eth[3].queue flowOutgoingDataRate:vector ETV
attr interpolationmode linear
attr recordingmode vector
attr source throughput(flowPacketLength(demuxFlow(packetPulled)))
attr title "flow specific outgoing data rate"
attr unit bps
vector 90 CampusNetwork.internet.internalSwitch.eth[3].mac transmitting:vector ETV
attr interpolationmode sample-hold
attr recordingmode vector
attr source "count(transmissionStarted) - count(transmissionEnded)"
attr title "transmitting state"
attr type int
vector 91 CampusNetwork.internet.internalSwitch.eth[3].mac throughput:vector ETV
attr interpolationmode linear
attr recordingmode vector
attr source throughput(transmissionEnded)
attr title throughput
attr unit bps
vector 92 CampusNetwork.internet.internalSwitch.eth[3].mac utilization:vector ETV
attr interpolationmode linear
attr recordingmode vector
attr source "100 * utilization(count(transmissionStarted) - count(transmissionEnded))"
attr title utilization
attr unit %
vector 93 CampusNetwork.internet.internalSwitch.eth[3].mac txPk:vector(packetBytes) ETV
attr interpolationmode none
attr recordingmode vector(packetBytes)
attr source packetSentToLower
attr title "packets transmitted, packetBytes"
vector 94 CampusNetwork.internet.internalSwitch.eth[3].mac rxPkOk:vector(packetBytes) ETV
attr interpolationmode none
attr recordingmode vector(packetBytes)
attr source rxPkOk
attr title "packets received OK, packetBytes"
vector 95 CampusNetwork.internet.internalSwitch.eth[3].mac passedUpPk:vector(packetBytes) ETV
attr interpolationmode none
attr recordingmode vector(packetBytes)
attr source packetSentToUpper
attr title "packets passed to higher layer, packetBytes"
vector 96 CampusNetwork.internet.internalSwitch.eth[3].mac txPausePkUnits:vector ETV
attr interpolationmode none
attr recordingmode vector
attr title "pause units sent"
vector 97 CampusNetwork.internet.internalSwitch.eth[3].mac rxPausePkUnits:vector ETV
attr interpolationmode none
attr recordingmode vector
attr title "pause units received"
vector 98 CampusNetwork.internet.internalSwitch.eth[3].mac packetReceivedFromUpper:vector(packetBytes) ETV
attr interpolationmode none
attr recordingmode vector(packetBytes)
attr source packetReceivedFromUpper
attr title "packet bytes from higher layer, packetBytes"
vector 99 CampusNetwork.internet.internalSwitch.eth[3].mac packetDropIncorrectlyReceived:vector(packetBytes) ETV
attr interpolationmode none
attr recordingmode vector(packetBytes)
attr source packetDropReasonIsIncorrectlyReceived(packetDropped)
attr title "packet drop: incorrectly received, packetBytes"
vector 100 CampusNetwork.internet.internalSwitch.eth[3].mac packetDropInterfaceDown:vector(packetBytes) ETV
attr interpolationmode none
attr recordingmode vector(packetBytes)
attr source packetDropReasonIsInterfaceDown(packetDropped)
attr title "packet drop: interface down, packetBytes"
vector 101 CampusNetwork.internet.internalSwitch.eth[3].mac packetDropNotAddressedToUs:vector(packetBytes) ETV
attr interpolationmode none
attr recordingmode vector(packetBytes)
attr source packetDropReasonIsNotAddressedToUs(packetDropped)
attr title "packet drop: not addressed to us, packetBytes"
vector 102 CampusNetwork.internet.internalSwitch.eth[3] packetDropInterfaceDown:vector(packetBytes) ETV
attr interpolationmode none
attr recordingmode vector(packetBytes)
attr source packetDropReasonIsInterfaceDown(packetDropped)
attr title "packet drops: interface down, packetBytes"
vector 103 CampusNetwork.internet.internalSwitch.eth[3] packetDropNoCarrier:vector(packetBytes) ETV
attr interpolationmode none
attr recordingmode vector(packetBytes)
attr source packetDropReasonIsNoCarrier(packetDropped)
attr title "packet drops: no carrier, packetBytes"
vector 104 CampusNetwork.mainRouter.ethernet encapPk:vector(packetBytes) ETV
attr interpolationmode none
attr recordingmode vector(packetBytes)
attr source encapPk
attr title "packets encapsulated, packetBytes"
vector 105 CampusNetwork.mainRouter.ethernet decapPk:vector(packetBytes) ETV
attr interpolationmode none
attr recordingmode vector(packetBytes)
attr source decapPk
attr title "packets decapsulated, packetBytes"
vector 106 CampusNetwork.mainRouter.ethernet pauseSent:vector ETV
attr recordingmode vector
attr title "pause sent"
vector 107 CampusNetwork.mainRouter.lo[0].lo rcvdPkFromHl:vector(packetBytes) ETV
attr interpolationmode none
attr recordingmode vector(packetBytes)
attr source packetReceivedFromUpper
attr title "packets received from higher layer, packetBytes"
vector 108 CampusNetwork.mainRouter.lo[0].lo passedUpPk:vector(packetBytes) ETV
attr interpolationmode none
attr recordingmode vector(packetBytes)
attr source packetSentToUpper
attr title "packets passed to higher layer, packetBytes"
vector 109 CampusNetwork.mainRouter.lo[0] packetDropInterfaceDown:vector(packetBytes) ETV
attr interpolationmode none
attr recordingmode vector(packetBytes)
attr source packetDropReasonIsInterfaceDown(packetDropped)
attr title "packet drops: interface down, packetBytes"
vector 110 CampusNetwork.mainRouter.lo[0] packetDropNoCarrier:vector(packetBytes) ETV
attr interpolationmode none
attr recordingmode vector(packetBytes)
attr source packetDropReasonIsNoCarrier(packetDropped)
attr title "packet drops: no carrier, packetBytes"
vector 111 CampusNetwork.mainRouter.eth[0].queue queueLength:vector ETV
attr autoWarmupFilter false
attr interpolationmode sample-hold
attr recordingmode vector
attr source "warmup(atomic(constant0(packetPushEnded) + count(packetPushStarted) - count(packetPulled) - count(packetRemoved) - count(packetDropped)))"
attr title "queue length"
attr unit pk
vector 112 CampusNetwork.mainRouter.eth[0].queue queueBitLength:vector ETV
attr autoWarmupFilter false
attr interpolationmode sample-hold
attr recordingmode vector
attr source "warmup(atomic(constant0(packetPushEnded) + sum(packetLength(packetPushStarted)) - sum(packetLength(packetPulled)) - sum(packetLength(packetRemoved)) - sum(packetLength(packetDropped))))"
attr title "queue bit length"
attr unit b
vector 113 CampusNetwork.mainRouter.eth[0].queue queueingTime:vector ETV
attr interpolationmode none
attr recordingmode vector
attr source queueingTime(packetPulled)
attr title "queueing times"
attr unit s
vector 114 CampusNetwork.mainRouter.eth[0].queue incomingPacketLengths:vector ETV
attr interpolationmode none
attr recordingmode vector
attr source packetLength(packetPushStarted)
attr title "incoming packet lengths"
attr unit b
vector 115 CampusNetwork.mainRouter.eth[0].queue incomingDataRate:vector ETV
attr interpolationmode linear
attr recordingmode vector
attr source throughput(packetPushStarted)
attr title "incoming datarate"
attr unit bps
vector 116 CampusNetwork.mainRouter.eth[0].queue outgoingPacketLengths:vector ETV
attr interpolationmode none
attr recordingmode vector
attr source packetLength(packetPulled)
attr title "outgoing packet lengths"
attr unit b
vector 117 CampusNetwork.mainRouter.eth[0].queue outgoingDataRate:vector ETV
attr interpolationmode linear
attr recordingmode vector
attr source throughput(packetPulled)
attr title "outgoing datarate"
attr unit bps
vector 118 CampusNetwork.mainRouter.eth[0].queue droppedPacketLengthsQueueOverflow:vector ETV
attr interpolationmode none
attr recordingmode vector
attr source packetLength(packetDropReasonIsQueueOverflow(packetDropped))
attr title "dropped packet lengths: queue overflow"
attr unit b
vector 119 CampusNetwork.mainRouter.eth[0].queue flowQueueingTime:vector ETV
attr interpolationmode none
attr recordingmode vector
attr source queueingTime(demuxFlow(packetPulled))
attr title "flow queueing times"
attr unit s
vector 120 CampusNetwork.mainRouter.eth[0].queue flowIncomingDataRate:vector ETV
attr interpolationmode linear
attr recordingmode vector
attr source throughput(flowPacketLength(demuxFlow(packetPushStarted)))
attr title "flow specific incoming data rate"
attr unit bps
vector 121 CampusNetwork.mainRouter.eth[0].queue flowOutgoingDataRate:vector ETV
attr interpolationmode linear
attr recordingmode vector
attr source throughput(flowPacketLength(demuxFlow(packetPulled)))
attr title "flow specific outgoing data rate"
attr unit bps
vector 122 CampusNetwork.mainRouter.eth[0].mac transmitting:vector ETV
attr interpolationmode sample-hold
attr recordingmode vector
attr source "count(transmissionStarted) - count(transmissionEnded)"
attr title "transmitting state"
attr type int
vector 123 CampusNetwork.mainRouter.eth[0].mac throughput:vector ETV
attr interpolationmode linear
attr recordingmode vector
attr source throughput(transmissionEnded)
attr title throughput
attr unit bps
vector 124 CampusNetwork.mainRouter.eth[0].mac utilization:vector ETV
attr interpolationmode linear
attr recordingmode vector
attr source "100 * utilization(count(transmissionStarted) - count(transmissionEnded))"
attr title utilization
attr unit %
vector 125 CampusNetwork.mainRouter.eth[0].mac txPk:vector(packetBytes) ETV
attr interpolationmode none
attr recordingmode vector(packetBytes)
attr source packetSentToLower
attr title "packets transmitted, packetBytes"
vector 126 CampusNetwork.mainRouter.eth[0].mac rxPkOk:vector(packetBytes) ETV
attr interpolationmode none
attr recordingmode vector(packetBytes)
attr source rxPkOk
attr title "packets received OK, packetBytes"
vector 127 CampusNetwork.mainRouter.eth[0].mac passedUpPk:vector(packetBytes) ETV
attr interpolationmode none
attr recordingmode vector(packetBytes)
attr source packetSentToUpper
attr title "packets passed to higher layer, packetBytes"
vector 128 CampusNetwork.mainRouter.eth[0].mac txPausePkUnits:vector ETV
attr interpolationmode none
attr recordingmode vector
attr title "pause units sent"
vector 129 CampusNetwork.mainRouter.eth[0].mac rxPausePkUnits:vector ETV
attr interpolationmode none
attr recordingmode vector
attr title "pause units received"
vector 130 CampusNetwork.mainRouter.eth[0].mac packetReceivedFromUpper:vector(packetBytes) ETV
attr interpolationmode none
attr recordingmode vector(packetBytes)
attr source packetReceivedFromUpper
attr title "packet bytes from higher layer, packetBytes"
vector 131 CampusNetwork.mainRouter.eth[0].mac packetDropIncorrectlyReceived:vector(packetBytes) ETV
attr interpolationmode none
attr recordingmode vector(packetBytes)
attr source packetDropReasonIsIncorrectlyReceived(packetDropped)
attr title "packet drop: incorrectly received, packetBytes"
vector 132 CampusNetwork.mainRouter.eth[0].mac packetDropInterfaceDown:vector(packetBytes) ETV
attr interpolationmode none
attr recordingmode vector(packetBytes)
attr source packetDropReasonIsInterfaceDown(packetDropped)
attr title "packet drop: interface down, packetBytes"
vector 133 CampusNetwork.mainRouter.eth[0].mac packetDropNotAddressedToUs:vector(packetBytes) ETV
attr interpolationmode none
attr recordingmode vector(packetBytes)
attr source packetDropReasonIsNotAddressedToUs(packetDropped)
attr title "packet drop: not addressed to us, packetBytes"
vector 134 CampusNetwork.mainRouter.eth[0] packetDropInterfaceDown:vector(packetBytes) ETV
attr interpolationmode none
attr recordingmode vector(packetBytes)
attr source packetDropReasonIsInterfaceDown(packetDropped)
attr title "packet drops: interface down, packetBytes"
vector 135 CampusNetwork.mainRouter.eth[0] packetDropNoCarrier:vector(packetBytes) ETV
attr interpolationmode none
attr recordingmode vector(packetBytes)
attr source packetDropReasonIsNoCarrier(packetDropped)
attr title "packet drops: no carrier, packetBytes"
vector 136 CampusNetwork.mainRouter.eth[1].queue queueLength:vector ETV
attr autoWarmupFilter false
attr interpolationmode sample-hold
attr recordingmode vector
attr source "warmup(atomic(constant0(packetPushEnded) + count(packetPushStarted) - count(packetPulled) - count(packetRemoved) - count(packetDropped)))"
attr title "queue length"
attr unit pk
vector 137 CampusNetwork.mainRouter.eth[1].queue queueBitLength:vector ETV
attr autoWarmupFilter false
attr interpolationmode sample-hold
attr recordingmode vector
attr source "warmup(atomic(constant0(packetPushEnded) + sum(packetLength(packetPushStarted)) - sum(packetLength(packetPulled)) - sum(packetLength(packetRemoved)) - sum(packetLength(packetDropped))))"
attr title "queue bit length"
attr unit b
vector 138 CampusNetwork.mainRouter.eth[1].queue queueingTime:vector ETV
attr interpolationmode none
attr recordingmode vector
attr source queueingTime(packetPulled)
attr title "queueing times"
attr unit s
vector 139 CampusNetwork.mainRouter.eth[1].queue incomingPacketLengths:vector ETV
attr interpolationmode none
attr recordingmode vector
attr source packetLength(packetPushStarted)
attr title "incoming packet lengths"
attr unit b
vector 140 CampusNetwork.mainRouter.eth[1].queue incomingDataRate:vector ETV
attr interpolationmode linear
attr recordingmode vector
attr source throughput(packetPushStarted)
attr title "incoming datarate"
attr unit bps
vector 141 CampusNetwork.mainRouter.eth[1].queue outgoingPacketLengths:vector ETV
attr interpolationmode none
attr recordingmode vector
attr source packetLength(packetPulled)
attr title "outgoing packet lengths"
attr unit b
vector 142 CampusNetwork.mainRouter.eth[1].queue outgoingDataRate:vector ETV
attr interpolationmode linear
attr recordingmode vector
attr source throughput(packetPulled)
attr title "outgoing datarate"
attr unit bps
vector 143 CampusNetwork.mainRouter.eth[1].queue droppedPacketLengthsQueueOverflow:vector ETV
attr interpolationmode none
attr recordingmode vector
attr source packetLength(packetDropReasonIsQueueOverflow(packetDropped))
attr title "dropped packet lengths: queue overflow"
attr unit b
vector 144 CampusNetwork.mainRouter.eth[1].queue flowQueueingTime:vector ETV
attr interpolationmode none
attr recordingmode vector
attr source queueingTime(demuxFlow(packetPulled))
attr title "flow queueing times"
attr unit s
vector 145 CampusNetwork.mainRouter.eth[1].queue flowIncomingDataRate:vector ETV
attr interpolationmode linear
attr recordingmode vector
attr source throughput(flowPacketLength(demuxFlow(packetPushStarted)))
attr title "flow specific incoming data rate"
attr unit bps
vector 146 CampusNetwork.mainRouter.eth[1].queue flowOutgoingDataRate:vector ETV
attr interpolationmode linear
attr recordingmode vector
attr source throughput(flowPacketLength(demuxFlow(packetPulled)))
attr title "flow specific outgoing data rate"
attr unit bps
vector 147 CampusNetwork.mainRouter.eth[1].mac transmitting:vector ETV
attr interpolationmode sample-hold
attr recordingmode vector
attr source "count(transmissionStarted) - count(transmissionEnded)"
attr title "transmitting state"
attr type int
vector 148 CampusNetwork.mainRouter.eth[1].mac throughput:vector ETV
attr interpolationmode linear
attr recordingmode vector
attr source throughput(transmissionEnded)
attr title throughput
attr unit bps
vector 149 CampusNetwork.mainRouter.eth[1].mac utilization:vector ETV
attr interpolationmode linear
attr recordingmode vector
attr source "100 * utilization(count(transmissionStarted) - count(transmissionEnded))"
attr title utilization
attr unit %
vector 150 CampusNetwork.mainRouter.eth[1].mac txPk:vector(packetBytes) ETV
attr interpolationmode none
attr recordingmode vector(packetBytes)
attr source packetSentToLower
attr title "packets transmitted, packetBytes"
vector 151 CampusNetwork.mainRouter.eth[1].mac rxPkOk:vector(packetBytes) ETV
attr interpolationmode none
attr recordingmode vector(packetBytes)
attr source rxPkOk
attr title "packets received OK, packetBytes"
vector 152 CampusNetwork.mainRouter.eth[1].mac passedUpPk:vector(packetBytes) ETV
attr interpolationmode none
attr recordingmode vector(packetBytes)
attr source packetSentToUpper
attr title "packets passed to higher layer, packetBytes"
vector 153 CampusNetwork.mainRouter.eth[1].mac txPausePkUnits:vector ETV
attr interpolationmode none
attr recordingmode vector
attr title "pause units sent"
vector 154 CampusNetwork.mainRouter.eth[1].mac rxPausePkUnits:vector ETV
attr interpolationmode none
attr recordingmode vector
attr title "pause units received"
vector 155 CampusNetwork.mainRouter.eth[1].mac packetReceivedFromUpper:vector(packetBytes) ETV
attr interpolationmode none
attr recordingmode vector(packetBytes)
attr source packetReceivedFromUpper
attr title "packet bytes from higher layer, packetBytes"
vector 156 CampusNetwork.mainRouter.eth[1].mac packetDropIncorrectlyReceived:vector(packetBytes) ETV
attr interpolationmode none
attr recordingmode vector(packetBytes)
attr source packetDropReasonIsIncorrectlyReceived(packetDropped)
attr title "packet drop: incorrectly received, packetBytes"
vector 157 CampusNetwork.mainRouter.eth[1].mac packetDropInterfaceDown:vector(packetBytes) ETV
attr interpolationmode none
attr recordingmode vector(packetBytes)
attr source packetDropReasonIsInterfaceDown(packetDropped)
attr title "packet drop: interface down, packetBytes"
vector 158 CampusNetwork.mainRouter.eth[1].mac packetDropNotAddressedToUs:vector(packetBytes) ETV
attr interpolationmode none
attr recordingmode vector(packetBytes)
attr source packetDropReasonIsNotAddressedToUs(packetDropped)
attr title "packet drop: not addressed to us, packetBytes"
vector 159 CampusNetwork.mainRouter.eth[1] packetDropInterfaceDown:vector(packetBytes) ETV
attr interpolationmode none
attr recordingmode vector(packetBytes)
attr source packetDropReasonIsInterfaceDown(packetDropped)
attr title "packet drops: interface down, packetBytes"
vector 160 CampusNetwork.mainRouter.eth[1] packetDropNoCarrier:vector(packetBytes) ETV
attr interpolationmode none
attr recordingmode vector(packetBytes)
attr source packetDropReasonIsNoCarrier(packetDropped)
attr title "packet drops: no carrier, packetBytes"
vector 161 CampusNetwork.mainRouter.ipv4.ip packetDropAddressResolutionFailed:vector(packetBytes) ETV
attr interpolationmode none
attr recordingmode vector(packetBytes)
attr source packetDropReasonIsAddressResolutionFailed(packetDropped)
attr title "packet drop: address resolution failed, packetBytes"
vector 162 CampusNetwork.mainRouter.ipv4.ip packetDropHopLimitReached:vector(packetBytes) ETV
attr interpolationmode none
attr recordingmode vector(packetBytes)
attr source packetDropReasonIsHopLimitReached(packetDropped)
attr title "packet drop: hop limit reached, packetBytes"
vector 163 CampusNetwork.mainRouter.ipv4.ip packetDropForwardingDisabled:vector(packetBytes) ETV
attr interpolationmode none
attr recordingmode vector(packetBytes)
attr source packetDropReasonIsForwardingDisabled(packetDropped)
attr title "packet drop: forwarding disabled, packetBytes"
vector 164 CampusNetwork.mainRouter.ipv4.ip packetDropLifetimeExpired:vector(packetBytes) ETV
attr interpolationmode none
attr recordingmode vector(packetBytes)
attr source packetDropReasonIsLifetimeExpired(packetDropped)
attr title "packet drop: lifetime expired, packetBytes"
vector 165 CampusNetwork.mainRouter.ipv4.ip packetDropNoInterfaceFound:vector(packetBytes) ETV
attr interpolationmode none
attr recordingmode vector(packetBytes)
attr source packetDropReasonIsNoInterfaceFound(packetDropped)
attr title "packet drop: no interface found, packetBytes"
vector 166 CampusNetwork.mainRouter.ipv4.ip packetDropNoRouteFound:vector(packetBytes) ETV
attr interpolationmode none
attr recordingmode vector(packetBytes)
attr source packetDropReasonIsNoRouteFound(packetDropped)
attr title "packet drop: no route found, packetBytes"
vector 167 CampusNetwork.mainRouter.ipv4.ip packetDropUndefined:vector(packetBytes) ETV
attr interpolationmode none
attr recordingmode vector(packetBytes)
attr source packetDropReasonIsUndefined(packetDropped)
attr title "packet drop: undefined, packetBytes"
vector 168 CampusNetwork.mainRouter.ipv4.arp arpRequestSent:vector(packetBytes) ETV
attr recordingmode vector(packetBytes)
attr source arpRequestSent
attr title "ARP request sent, packetBytes"
vector 169 CampusNetwork.mainRouter.ipv4.arp arpReplySent:vector(packetBytes) ETV
attr recordingmode vector(packetBytes)
attr source arpReplySent
attr title "ARP replies sent, packetBytes"
vector 170 CampusNetwork.backupRouter.ethernet encapPk:vector(packetBytes) ETV
attr interpolationmode none
attr recordingmode vector(packetBytes)
attr source encapPk
attr title "packets encapsulated, packetBytes"
vector 171 CampusNetwork.backupRouter.ethernet decapPk:vector(packetBytes) ETV
attr interpolationmode none
attr recordingmode vector(packetBytes)
attr source decapPk
attr title "packets decapsulated, packetBytes"
vector 172 CampusNetwork.backupRouter.ethernet pauseSent:vector ETV
attr recordingmode vector
attr title "pause sent"
vector 173 CampusNetwork.backupRouter.lo[0].lo rcvdPkFromHl:vector(packetBytes) ETV
attr interpolationmode none
attr recordingmode vector(packetBytes)
attr source packetReceivedFromUpper
attr title "packets received from higher layer, packetBytes"
vector 174 CampusNetwork.backupRouter.lo[0].lo passedUpPk:vector(packetBytes) ETV
attr interpolationmode none
attr recordingmode vector(packetBytes)
attr source packetSentToUpper
attr title "packets passed to higher layer, packetBytes"
vector 175 CampusNetwork.backupRouter.lo[0] packetDropInterfaceDown:vector(packetBytes) ETV
attr interpolationmode none
attr recordingmode vector(packetBytes)
attr source packetDropReasonIsInterfaceDown(packetDropped)
attr title "packet drops: interface down, packetBytes"
vector 176 CampusNetwork.backupRouter.lo[0] packetDropNoCarrier:vector(packetBytes) ETV
attr interpolationmode none
attr recordingmode vector(packetBytes)
attr source packetDropReasonIsNoCarrier(packetDropped)
attr title "packet drops: no carrier, packetBytes"
vector 177 CampusNetwork.backupRouter.eth[0].queue queueLength:vector ETV
attr autoWarmupFilter false
attr interpolationmode sample-hold
attr recordingmode vector
attr source "warmup(atomic(constant0(packetPushEnded) + count(packetPushStarted) - count(packetPulled) - count(packetRemoved) - count(packetDropped)))"
attr title "queue length"
attr unit pk
vector 178 CampusNetwork.backupRouter.eth[0].queue queueBitLength:vector ETV
attr autoWarmupFilter false
attr interpolationmode sample-hold
attr recordingmode vector
attr source "warmup(atomic(constant0(packetPushEnded) + sum(packetLength(packetPushStarted)) - sum(packetLength(packetPulled)) - sum(packetLength(packetRemoved)) - sum(packetLength(packetDropped))))"
attr title "queue bit length"
attr unit b
vector 179 CampusNetwork.backupRouter.eth[0].queue queueingTime:vector ETV
attr interpolationmode none
attr recordingmode vector
attr source queueingTime(packetPulled)
attr title "queueing times"
attr unit s
vector 180 CampusNetwork.backupRouter.eth[0].queue incomingPacketLengths:vector ETV
attr interpolationmode none
attr recordingmode vector
attr source packetLength(packetPushStarted)
attr title "incoming packet lengths"
attr unit b
vector 181 CampusNetwork.backupRouter.eth[0].queue incomingDataRate:vector ETV
attr interpolationmode linear
attr recordingmode vector
attr source throughput(packetPushStarted)
attr title "incoming datarate"
attr unit bps
vector 182 CampusNetwork.backupRouter.eth[0].queue outgoingPacketLengths:vector ETV
attr interpolationmode none
attr recordingmode vector
attr source packetLength(packetPulled)
attr title "outgoing packet lengths"
attr unit b
vector 183 CampusNetwork.backupRouter.eth[0].queue outgoingDataRate:vector ETV
attr interpolationmode linear
attr recordingmode vector
attr source throughput(packetPulled)
attr title "outgoing datarate"
attr unit bps
vector 184 CampusNetwork.backupRouter.eth[0].queue droppedPacketLengthsQueueOverflow:vector ETV
attr interpolationmode none
attr recordingmode vector
attr source packetLength(packetDropReasonIsQueueOverflow(packetDropped))
attr title "dropped packet lengths: queue overflow"
attr unit b
vector 185 CampusNetwork.backupRouter.eth[0].queue flowQueueingTime:vector ETV
attr interpolationmode none
attr recordingmode vector
attr source queueingTime(demuxFlow(packetPulled))
attr title "flow queueing times"
attr unit s
vector 186 CampusNetwork.backupRouter.eth[0].queue flowIncomingDataRate:vector ETV
attr interpolationmode linear
attr recordingmode vector
attr source throughput(flowPacketLength(demuxFlow(packetPushStarted)))
attr title "flow specific incoming data rate"
attr unit bps
vector 187 CampusNetwork.backupRouter.eth[0].queue flowOutgoingDataRate:vector ETV
attr interpolationmode linear
attr recordingmode vector
attr source throughput(flowPacketLength(demuxFlow(packetPulled)))
attr title "flow specific outgoing data rate"
attr unit bps
vector 188 CampusNetwork.backupRouter.eth[0].mac transmitting:vector ETV
attr interpolationmode sample-hold
attr recordingmode vector
attr source "count(transmissionStarted) - count(transmissionEnded)"
attr title "transmitting state"
attr type int
vector 189 CampusNetwork.backupRouter.eth[0].mac throughput:vector ETV
attr interpolationmode linear
attr recordingmode vector
attr source throughput(transmissionEnded)
attr title throughput
attr unit bps
vector 190 CampusNetwork.backupRouter.eth[0].mac utilization:vector ETV
attr interpolationmode linear
attr recordingmode vector
attr source "100 * utilization(count(transmissionStarted) - count(transmissionEnded))"
attr title utilization
attr unit %
vector 191 CampusNetwork.backupRouter.eth[0].mac txPk:vector(packetBytes) ETV
attr interpolationmode none
attr recordingmode vector(packetBytes)
attr source packetSentToLower
attr title "packets transmitted, packetBytes"
vector 192 CampusNetwork.backupRouter.eth[0].mac rxPkOk:vector(packetBytes) ETV
attr interpolationmode none
attr recordingmode vector(packetBytes)
attr source rxPkOk
attr title "packets received OK, packetBytes"
vector 193 CampusNetwork.backupRouter.eth[0].mac passedUpPk:vector(packetBytes) ETV
attr interpolationmode none
attr recordingmode vector(packetBytes)
attr source packetSentToUpper
attr title "packets passed to higher layer, packetBytes"
vector 194 CampusNetwork.backupRouter.eth[0].mac txPausePkUnits:vector ETV
attr interpolationmode none
attr recordingmode vector
attr title "pause units sent"
vector 195 CampusNetwork.backupRouter.eth[0].mac rxPausePkUnits:vector ETV
attr interpolationmode none
attr recordingmode vector
attr title "pause units received"
vector 196 CampusNetwork.backupRouter.eth[0].mac packetReceivedFromUpper:vector(packetBytes) ETV
attr interpolationmode none
attr recordingmode vector(packetBytes)
attr source packetReceivedFromUpper
attr title "packet bytes from higher layer, packetBytes"
vector 197 CampusNetwork.backupRouter.eth[0].mac packetDropIncorrectlyReceived:vector(packetBytes) ETV
attr interpolationmode none
attr recordingmode vector(packetBytes)
attr source packetDropReasonIsIncorrectlyReceived(packetDropped)
attr title "packet drop: incorrectly received, packetBytes"
vector 198 CampusNetwork.backupRouter.eth[0].mac packetDropInterfaceDown:vector(packetBytes) ETV
attr interpolationmode none
attr recordingmode vector(packetBytes)
attr source packetDropReasonIsInterfaceDown(packetDropped)
attr title "packet drop: interface down, packetBytes"
vector 199 CampusNetwork.backupRouter.eth[0].mac packetDropNotAddressedToUs:vector(packetBytes) ETV
attr interpolationmode none
attr recordingmode vector(packetBytes)
attr source packetDropReasonIsNotAddressedToUs(packetDropped)
attr title "packet drop: not addressed to us, packetBytes"
vector 200 CampusNetwork.backupRouter.eth[0] packetDropInterfaceDown:vector(packetBytes) ETV
attr interpolationmode none
attr recordingmode vector(packetBytes)
attr source packetDropReasonIsInterfaceDown(packetDropped)
attr title "packet drops: interface down, packetBytes"
vector 201 CampusNetwork.backupRouter.eth[0] packetDropNoCarrier:vector(packetBytes) ETV
attr interpolationmode none
attr recordingmode vector(packetBytes)
attr source packetDropReasonIsNoCarrier(packetDropped)
attr title "packet drops: no carrier, packetBytes"
vector 202 CampusNetwork.backupRouter.eth[1].queue queueLength:vector ETV
attr autoWarmupFilter false
attr interpolationmode sample-hold
attr recordingmode vector
attr source "warmup(atomic(constant0(packetPushEnded) + count(packetPushStarted) - count(packetPulled) - count(packetRemoved) - count(packetDropped)))"
attr title "queue length"
attr unit pk
vector 203 CampusNetwork.backupRouter.eth[1].queue queueBitLength:vector ETV
attr autoWarmupFilter false
attr interpolationmode sample-hold
attr recordingmode vector
attr source "warmup(atomic(constant0(packetPushEnded) + sum(packetLength(packetPushStarted)) - sum(packetLength(packetPulled)) - sum(packetLength(packetRemoved)) - sum(packetLength(packetDropped))))"
attr title "queue bit length"
attr unit b
vector 204 CampusNetwork.backupRouter.eth[1].queue queueingTime:vector ETV
attr interpolationmode none
attr recordingmode vector
attr source queueingTime(packetPulled)
attr title "queueing times"
attr unit s
vector 205 CampusNetwork.backupRouter.eth[1].queue incomingPacketLengths:vector ETV
attr interpolationmode none
attr recordingmode vector
attr source packetLength(packetPushStarted)
attr title "incoming packet lengths"
attr unit b
vector 206 CampusNetwork.backupRouter.eth[1].queue incomingDataRate:vector ETV
attr interpolationmode linear
attr recordingmode vector
attr source throughput(packetPushStarted)
attr title "incoming datarate"
attr unit bps
vector 207 CampusNetwork.backupRouter.eth[1].queue outgoingPacketLengths:vector ETV
attr interpolationmode none
attr recordingmode vector
attr source packetLength(packetPulled)
attr title "outgoing packet lengths"
attr unit b
vector 208 CampusNetwork.backupRouter.eth[1].queue outgoingDataRate:vector ETV
attr interpolationmode linear
attr recordingmode vector
attr source throughput(packetPulled)
attr title "outgoing datarate"
attr unit bps
vector 209 CampusNetwork.backupRouter.eth[1].queue droppedPacketLengthsQueueOverflow:vector ETV
attr interpolationmode none
attr recordingmode vector
attr source packetLength(packetDropReasonIsQueueOverflow(packetDropped))
attr title "dropped packet lengths: queue overflow"
attr unit b
vector 210 CampusNetwork.backupRouter.eth[1].queue flowQueueingTime:vector ETV
attr interpolationmode none
attr recordingmode vector
attr source queueingTime(demuxFlow(packetPulled))
attr title "flow queueing times"
attr unit s
vector 211 CampusNetwork.backupRouter.eth[1].queue flowIncomingDataRate:vector ETV
attr interpolationmode linear
attr recordingmode vector
attr source throughput(flowPacketLength(demuxFlow(packetPushStarted)))
attr title "flow specific incoming data rate"
attr unit bps
vector 212 CampusNetwork.backupRouter.eth[1].queue flowOutgoingDataRate:vector ETV
attr interpolationmode linear
attr recordingmode vector
attr source throughput(flowPacketLength(demuxFlow(packetPulled)))
attr title "flow specific outgoing data rate"
attr unit bps
vector 213 CampusNetwork.backupRouter.eth[1].mac transmitting:vector ETV
attr interpolationmode sample-hold
attr recordingmode vector
attr source "count(transmissionStarted) - count(transmissionEnded)"
attr title "transmitting state"
attr type int
vector 214 CampusNetwork.backupRouter.eth[1].mac throughput:vector ETV
attr interpolationmode linear
attr recordingmode vector
attr source throughput(transmissionEnded)
attr title throughput
attr unit bps
vector 215 CampusNetwork.backupRouter.eth[1].mac utilization:vector ETV
attr interpolationmode linear
attr recordingmode vector
attr source "100 * utilization(count(transmissionStarted) - count(transmissionEnded))"
attr title utilization
attr unit %
vector 216 CampusNetwork.backupRouter.eth[1].mac txPk:vector(packetBytes) ETV
attr interpolationmode none
attr recordingmode vector(packetBytes)
attr source packetSentToLower
attr title "packets transmitted, packetBytes"
vector 217 CampusNetwork.backupRouter.eth[1].mac rxPkOk:vector(packetBytes) ETV
attr interpolationmode none
attr recordingmode vector(packetBytes)
attr source rxPkOk
attr title "packets received OK, packetBytes"
vector 218 CampusNetwork.backupRouter.eth[1].mac passedUpPk:vector(packetBytes) ETV
attr interpolationmode none
attr recordingmode vector(packetBytes)
attr source packetSentToUpper
attr title "packets passed to higher layer, packetBytes"
vector 219 CampusNetwork.backupRouter.eth[1].mac txPausePkUnits:vector ETV
attr interpolationmode none
attr recordingmode vector
attr title "pause units sent"
vector 220 CampusNetwork.backupRouter.eth[1].mac rxPausePkUnits:vector ETV
attr interpolationmode none
attr recordingmode vector
attr title "pause units received"
vector 221 CampusNetwork.backupRouter.eth[1].mac packetReceivedFromUpper:vector(packetBytes) ETV
attr interpolationmode none
attr recordingmode vector(packetBytes)
attr source packetReceivedFromUpper
attr title "packet bytes from higher layer, packetBytes"
vector 222 CampusNetwork.backupRouter.eth[1].mac packetDropIncorrectlyReceived:vector(packetBytes) ETV
attr interpolationmode none
attr recordingmode vector(packetBytes)
attr source packetDropReasonIsIncorrectlyReceived(packetDropped)
attr title "packet drop: incorrectly received, packetBytes"
vector 223 CampusNetwork.backupRouter.eth[1].mac packetDropInterfaceDown:vector(packetBytes) ETV
attr interpolationmode none
attr recordingmode vector(packetBytes)
attr source packetDropReasonIsInterfaceDown(packetDropped)
attr title "packet drop: interface down, packetBytes"
vector 224 CampusNetwork.backupRouter.eth[1].mac packetDropNotAddressedToUs:vector(packetBytes) ETV
attr interpolationmode none
attr recordingmode vector(packetBytes)
attr source packetDropReasonIsNotAddressedToUs(packetDropped)
attr title "packet drop: not addressed to us, packetBytes"
vector 225 CampusNetwork.backupRouter.eth[1] packetDropInterfaceDown:vector(packetBytes) ETV
attr interpolationmode none
attr recordingmode vector(packetBytes)
attr source packetDropReasonIsInterfaceDown(packetDropped)
attr title "packet drops: interface down, packetBytes"
vector 226 CampusNetwork.backupRouter.eth[1] packetDropNoCarrier:vector(packetBytes) ETV
attr interpolationmode none
attr recordingmode vector(packetBytes)
attr source packetDropReasonIsNoCarrier(packetDropped)
attr title "packet drops: no carrier, packetBytes"
vector 227 CampusNetwork.backupRouter.ipv4.ip packetDropAddressResolutionFailed:vector(packetBytes) ETV
attr interpolationmode none
attr recordingmode vector(packetBytes)
attr source packetDropReasonIsAddressResolutionFailed(packetDropped)
attr title "packet drop: address resolution failed, packetBytes"
vector 228 CampusNetwork.backupRouter.ipv4.ip packetDropHopLimitReached:vector(packetBytes) ETV
attr interpolationmode none
attr recordingmode vector(packetBytes)
attr source packetDropReasonIsHopLimitReached(packetDropped)
attr title "packet drop: hop limit reached, packetBytes"
vector 229 CampusNetwork.backupRouter.ipv4.ip packetDropForwardingDisabled:vector(packetBytes) ETV
attr interpolationmode none
attr recordingmode vector(packetBytes)
attr source packetDropReasonIsForwardingDisabled(packetDropped)
attr title "packet drop: forwarding disabled, packetBytes"
vector 230 CampusNetwork.backupRouter.ipv4.ip packetDropLifetimeExpired:vector(packetBytes) ETV
attr interpolationmode none
attr recordingmode vector(packetBytes)
attr source packetDropReasonIsLifetimeExpired(packetDropped)
attr title "packet drop: lifetime expired, packetBytes"
vector 231 CampusNetwork.backupRouter.ipv4.ip packetDropNoInterfaceFound:vector(packetBytes) ETV
attr interpolationmode none
attr recordingmode vector(packetBytes)
attr source packetDropReasonIsNoInterfaceFound(packetDropped)
attr title "packet drop: no interface found, packetBytes"
vector 232 CampusNetwork.backupRouter.ipv4.ip packetDropNoRouteFound:vector(packetBytes) ETV
attr interpolationmode none
attr recordingmode vector(packetBytes)
attr source packetDropReasonIsNoRouteFound(packetDropped)
attr title "packet drop: no route found, packetBytes"
vector 233 CampusNetwork.backupRouter.ipv4.ip packetDropUndefined:vector(packetBytes) ETV
attr interpolationmode none
attr recordingmode vector(packetBytes)
attr source packetDropReasonIsUndefined(packetDropped)
attr title "packet drop: undefined, packetBytes"
vector 234 CampusNetwork.backupRouter.ipv4.arp arpRequestSent:vector(packetBytes) ETV
attr recordingmode vector(packetBytes)
attr source arpRequestSent
attr title "ARP request sent, packetBytes"
vector 235 CampusNetwork.backupRouter.ipv4.arp arpReplySent:vector(packetBytes) ETV
attr recordingmode vector(packetBytes)
attr source arpReplySent
attr title "ARP replies sent, packetBytes"
vector 236 CampusNetwork.mainSwitch.bridging packetDropped:vector(packetBytes) ETV
attr interpolationmode none
attr recordingmode vector(packetBytes)
attr title "packets dropped, packetBytes"
vector 237 CampusNetwork.mainSwitch.ethernet encapPk:vector(packetBytes) ETV
attr interpolationmode none
attr recordingmode vector(packetBytes)
attr source encapPk
attr title "packets encapsulated, packetBytes"
vector 238 CampusNetwork.mainSwitch.ethernet decapPk:vector(packetBytes) ETV
attr interpolationmode none
attr recordingmode vector(packetBytes)
attr source decapPk
attr title "packets decapsulated, packetBytes"
vector 239 CampusNetwork.mainSwitch.ethernet pauseSent:vector ETV
attr recordingmode vector
attr title "pause sent"
vector 240 CampusNetwork.mainSwitch.eth[0].queue queueLength:vector ETV
attr autoWarmupFilter false
attr interpolationmode sample-hold
attr recordingmode vector
attr source "warmup(atomic(constant0(packetPushEnded) + count(packetPushStarted) - count(packetPulled) - count(packetRemoved) - count(packetDropped)))"
attr title "queue length"
attr unit pk
vector 241 CampusNetwork.mainSwitch.eth[0].queue queueBitLength:vector ETV
attr autoWarmupFilter false
attr interpolationmode sample-hold
attr recordingmode vector
attr source "warmup(atomic(constant0(packetPushEnded) + sum(packetLength(packetPushStarted)) - sum(packetLength(packetPulled)) - sum(packetLength(packetRemoved)) - sum(packetLength(packetDropped))))"
attr title "queue bit length"
attr unit b
vector 242 CampusNetwork.mainSwitch.eth[0].queue queueingTime:vector ETV
attr interpolationmode none
attr recordingmode vector
attr source queueingTime(packetPulled)
attr title "queueing times"
attr unit s
vector 243 CampusNetwork.mainSwitch.eth[0].queue incomingPacketLengths:vector ETV
attr interpolationmode none
attr recordingmode vector
attr source packetLength(packetPushStarted)
attr title "incoming packet lengths"
attr unit b
vector 244 CampusNetwork.mainSwitch.eth[0].queue incomingDataRate:vector ETV
attr interpolationmode linear
attr recordingmode vector
attr source throughput(packetPushStarted)
attr title "incoming datarate"
attr unit bps
vector 245 CampusNetwork.mainSwitch.eth[0].queue outgoingPacketLengths:vector ETV
attr interpolationmode none
attr recordingmode vector
attr source packetLength(packetPulled)
attr title "outgoing packet lengths"
attr unit b
vector 246 CampusNetwork.mainSwitch.eth[0].queue outgoingDataRate:vector ETV
attr interpolationmode linear
attr recordingmode vector
attr source throughput(packetPulled)
attr title "outgoing datarate"
attr unit bps
vector 247 CampusNetwork.mainSwitch.eth[0].queue droppedPacketLengthsQueueOverflow:vector ETV
attr interpolationmode none
attr recordingmode vector
attr source packetLength(packetDropReasonIsQueueOverflow(packetDropped))
attr title "dropped packet lengths: queue overflow"
attr unit b
vector 248 CampusNetwork.mainSwitch.eth[0].queue flowQueueingTime:vector ETV
attr interpolationmode none
attr recordingmode vector
attr source queueingTime(demuxFlow(packetPulled))
attr title "flow queueing times"
attr unit s
vector 249 CampusNetwork.mainSwitch.eth[0].queue flowIncomingDataRate:vector ETV
attr interpolationmode linear
attr recordingmode vector
attr source throughput(flowPacketLength(demuxFlow(packetPushStarted)))
attr title "flow specific incoming data rate"
attr unit bps
vector 250 CampusNetwork.mainSwitch.eth[0].queue flowOutgoingDataRate:vector ETV
attr interpolationmode linear
attr recordingmode vector
attr source throughput(flowPacketLength(demuxFlow(packetPulled)))
attr title "flow specific outgoing data rate"
attr unit bps
vector 251 CampusNetwork.mainSwitch.eth[0].mac transmitting:vector ETV
attr interpolationmode sample-hold
attr recordingmode vector
attr source "count(transmissionStarted) - count(transmissionEnded)"
attr title "transmitting state"
attr type int
vector 252 CampusNetwork.mainSwitch.eth[0].mac throughput:vector ETV
attr interpolationmode linear
attr recordingmode vector
attr source throughput(transmissionEnded)
attr title throughput
attr unit bps
vector 253 CampusNetwork.mainSwitch.eth[0].mac utilization:vector ETV
attr interpolationmode linear
attr recordingmode vector
attr source "100 * utilization(count(transmissionStarted) - count(transmissionEnded))"
attr title utilization
attr unit %
vector 254 CampusNetwork.mainSwitch.eth[0].mac txPk:vector(packetBytes) ETV
attr interpolationmode none
attr recordingmode vector(packetBytes)
attr source packetSentToLower
attr title "packets transmitted, packetBytes"
vector 255 CampusNetwork.mainSwitch.eth[0].mac rxPkOk:vector(packetBytes) ETV
attr interpolationmode none
attr recordingmode vector(packetBytes)
attr source rxPkOk
attr title "packets received OK, packetBytes"
vector 256 CampusNetwork.mainSwitch.eth[0].mac passedUpPk:vector(packetBytes) ETV
attr interpolationmode none
attr recordingmode vector(packetBytes)
attr source packetSentToUpper
attr title "packets passed to higher layer, packetBytes"
vector 257 CampusNetwork.mainSwitch.eth[0].mac txPausePkUnits:vector ETV
attr interpolationmode none
attr recordingmode vector
attr title "pause units sent"
vector 258 CampusNetwork.mainSwitch.eth[0].mac rxPausePkUnits:vector ETV
attr interpolationmode none
attr recordingmode vector
attr title "pause units received"
vector 259 CampusNetwork.mainSwitch.eth[0].mac packetReceivedFromUpper:vector(packetBytes) ETV
attr interpolationmode none
attr recordingmode vector(packetBytes)
attr source packetReceivedFromUpper
attr title "packet bytes from higher layer, packetBytes"
vector 260 CampusNetwork.mainSwitch.eth[0].mac packetDropIncorrectlyReceived:vector(packetBytes) ETV
attr interpolationmode none
attr recordingmode vector(packetBytes)
attr source packetDropReasonIsIncorrectlyReceived(packetDropped)
attr title "packet drop: incorrectly received, packetBytes"
vector 261 CampusNetwork.mainSwitch.eth[0].mac packetDropInterfaceDown:vector(packetBytes) ETV
attr interpolationmode none
attr recordingmode vector(packetBytes)
attr source packetDropReasonIsInterfaceDown(packetDropped)
attr title "packet drop: interface down, packetBytes"
vector 262 CampusNetwork.mainSwitch.eth[0].mac packetDropNotAddressedToUs:vector(packetBytes) ETV
attr interpolationmode none
attr recordingmode vector(packetBytes)
attr source packetDropReasonIsNotAddressedToUs(packetDropped)
attr title "packet drop: not addressed to us, packetBytes"
vector 263 CampusNetwork.mainSwitch.eth[0] packetDropInterfaceDown:vector(packetBytes) ETV
attr interpolationmode none
attr recordingmode vector(packetBytes)
attr source packetDropReasonIsInterfaceDown(packetDropped)
attr title "packet drops: interface down, packetBytes"
vector 264 CampusNetwork.mainSwitch.eth[0] packetDropNoCarrier:vector(packetBytes) ETV
attr interpolationmode none
attr recordingmode vector(packetBytes)
attr source packetDropReasonIsNoCarrier(packetDropped)
attr title "packet drops: no carrier, packetBytes"
vector 265 CampusNetwork.mainSwitch.eth[1].queue queueLength:vector ETV
attr autoWarmupFilter false
attr interpolationmode sample-hold
attr recordingmode vector
attr source "warmup(atomic(constant0(packetPushEnded) + count(packetPushStarted) - count(packetPulled) - count(packetRemoved) - count(packetDropped)))"
attr title "queue length"
attr unit pk
vector 266 CampusNetwork.mainSwitch.eth[1].queue queueBitLength:vector ETV
attr autoWarmupFilter false
attr interpolationmode sample-hold
attr recordingmode vector
attr source "warmup(atomic(constant0(packetPushEnded) + sum(packetLength(packetPushStarted)) - sum(packetLength(packetPulled)) - sum(packetLength(packetRemoved)) - sum(packetLength(packetDropped))))"
attr title "queue bit length"
attr unit b
vector 267 CampusNetwork.mainSwitch.eth[1].queue queueingTime:vector ETV
attr interpolationmode none
attr recordingmode vector
attr source queueingTime(packetPulled)
attr title "queueing times"
attr unit s
vector 268 CampusNetwork.mainSwitch.eth[1].queue incomingPacketLengths:vector ETV
attr interpolationmode none
attr recordingmode vector
attr source packetLength(packetPushStarted)
attr title "incoming packet lengths"
attr unit b
vector 269 CampusNetwork.mainSwitch.eth[1].queue incomingDataRate:vector ETV
attr interpolationmode linear
attr recordingmode vector
attr source throughput(packetPushStarted)
attr title "incoming datarate"
attr unit bps
vector 270 CampusNetwork.mainSwitch.eth[1].queue outgoingPacketLengths:vector ETV
attr interpolationmode none
attr recordingmode vector
attr source packetLength(packetPulled)
attr title "outgoing packet lengths"
attr unit b
vector 271 CampusNetwork.mainSwitch.eth[1].queue outgoingDataRate:vector ETV
attr interpolationmode linear
attr recordingmode vector
attr source throughput(packetPulled)
attr title "outgoing datarate"
attr unit bps
vector 272 CampusNetwork.mainSwitch.eth[1].queue droppedPacketLengthsQueueOverflow:vector ETV
attr interpolationmode none
attr recordingmode vector
attr source packetLength(packetDropReasonIsQueueOverflow(packetDropped))
attr title "dropped packet lengths: queue overflow"
attr unit b
vector 273 CampusNetwork.mainSwitch.eth[1].queue flowQueueingTime:vector ETV
attr interpolationmode none
attr recordingmode vector
attr source queueingTime(demuxFlow(packetPulled))
attr title "flow queueing times"
attr unit s
vector 274 CampusNetwork.mainSwitch.eth[1].queue flowIncomingDataRate:vector ETV
attr interpolationmode linear
attr recordingmode vector
attr source throughput(flowPacketLength(demuxFlow(packetPushStarted)))
attr title "flow specific incoming data rate"
attr unit bps
vector 275 CampusNetwork.mainSwitch.eth[1].queue flowOutgoingDataRate:vector ETV
attr interpolationmode linear
attr recordingmode vector
attr source throughput(flowPacketLength(demuxFlow(packetPulled)))
attr title "flow specific outgoing data rate"
attr unit bps
vector 276 CampusNetwork.mainSwitch.eth[1].mac transmitting:vector ETV
attr interpolationmode sample-hold
attr recordingmode vector
attr source "count(transmissionStarted) - count(transmissionEnded)"
attr title "transmitting state"
attr type int
vector 277 CampusNetwork.mainSwitch.eth[1].mac throughput:vector ETV
attr interpolationmode linear
attr recordingmode vector
attr source throughput(transmissionEnded)
attr title throughput
attr unit bps
vector 278 CampusNetwork.mainSwitch.eth[1].mac utilization:vector ETV
attr interpolationmode linear
attr recordingmode vector
attr source "100 * utilization(count(transmissionStarted) - count(transmissionEnded))"
attr title utilization
attr unit %
vector 279 CampusNetwork.mainSwitch.eth[1].mac txPk:vector(packetBytes) ETV
attr interpolationmode none
attr recordingmode vector(packetBytes)
attr source packetSentToLower
attr title "packets transmitted, packetBytes"
vector 280 CampusNetwork.mainSwitch.eth[1].mac rxPkOk:vector(packetBytes) ETV
attr interpolationmode none
attr recordingmode vector(packetBytes)
attr source rxPkOk
attr title "packets received OK, packetBytes"
vector 281 CampusNetwork.mainSwitch.eth[1].mac passedUpPk:vector(packetBytes) ETV
attr interpolationmode none
attr recordingmode vector(packetBytes)
attr source packetSentToUpper
attr title "packets passed to higher layer, packetBytes"
vector 282 CampusNetwork.mainSwitch.eth[1].mac txPausePkUnits:vector ETV
attr interpolationmode none
attr recordingmode vector
attr title "pause units sent"
vector 283 CampusNetwork.mainSwitch.eth[1].mac rxPausePkUnits:vector ETV
attr interpolationmode none
attr recordingmode vector
attr title "pause units received"
vector 284 CampusNetwork.mainSwitch.eth[1].mac packetReceivedFromUpper:vector(packetBytes) ETV
attr interpolationmode none
attr recordingmode vector(packetBytes)
attr source packetReceivedFromUpper
attr title "packet bytes from higher layer, packetBytes"
vector 285 CampusNetwork.mainSwitch.eth[1].mac packetDropIncorrectlyReceived:vector(packetBytes) ETV
attr interpolationmode none
attr recordingmode vector(packetBytes)
attr source packetDropReasonIsIncorrectlyReceived(packetDropped)
attr title "packet drop: incorrectly received, packetBytes"
vector 286 CampusNetwork.mainSwitch.eth[1].mac packetDropInterfaceDown:vector(packetBytes) ETV
attr interpolationmode none
attr recordingmode vector(packetBytes)
attr source packetDropReasonIsInterfaceDown(packetDropped)
attr title "packet drop: interface down, packetBytes"
vector 287 CampusNetwork.mainSwitch.eth[1].mac packetDropNotAddressedToUs:vector(packetBytes) ETV
attr interpolationmode none
attr recordingmode vector(packetBytes)
attr source packetDropReasonIsNotAddressedToUs(packetDropped)
attr title "packet drop: not addressed to us, packetBytes"
vector 288 CampusNetwork.mainSwitch.eth[1] packetDropInterfaceDown:vector(packetBytes) ETV
attr interpolationmode none
attr recordingmode vector(packetBytes)
attr source packetDropReasonIsInterfaceDown(packetDropped)
attr title "packet drops: interface down, packetBytes"
vector 289 CampusNetwork.mainSwitch.eth[1] packetDropNoCarrier:vector(packetBytes) ETV
attr interpolationmode none
attr recordingmode vector(packetBytes)
attr source packetDropReasonIsNoCarrier(packetDropped)
attr title "packet drops: no carrier, packetBytes"
vector 290 CampusNetwork.mainSwitch.eth[2].queue queueLength:vector ETV
attr autoWarmupFilter false
attr interpolationmode sample-hold
attr recordingmode vector
attr source "warmup(atomic(constant0(packetPushEnded) + count(packetPushStarted) - count(packetPulled) - count(packetRemoved) - count(packetDropped)))"
attr title "queue length"
attr unit pk
vector 291 CampusNetwork.mainSwitch.eth[2].queue queueBitLength:vector ETV
attr autoWarmupFilter false
attr interpolationmode sample-hold
attr recordingmode vector
attr source "warmup(atomic(constant0(packetPushEnded) + sum(packetLength(packetPushStarted)) - sum(packetLength(packetPulled)) - sum(packetLength(packetRemoved)) - sum(packetLength(packetDropped))))"
attr title "queue bit length"
attr unit b
vector 292 CampusNetwork.mainSwitch.eth[2].queue queueingTime:vector ETV
attr interpolationmode none
attr recordingmode vector
attr source queueingTime(packetPulled)
attr title "queueing times"
attr unit s
vector 293 CampusNetwork.mainSwitch.eth[2].queue incomingPacketLengths:vector ETV
attr interpolationmode none
attr recordingmode vector
attr source packetLength(packetPushStarted)
attr title "incoming packet lengths"
attr unit b
vector 294 CampusNetwork.mainSwitch.eth[2].queue incomingDataRate:vector ETV
attr interpolationmode linear
attr recordingmode vector
attr source throughput(packetPushStarted)
attr title "incoming datarate"
attr unit bps
vector 295 CampusNetwork.mainSwitch.eth[2].queue outgoingPacketLengths:vector ETV
attr interpolationmode none
attr recordingmode vector
attr source packetLength(packetPulled)
attr title "outgoing packet lengths"
attr unit b
vector 296 CampusNetwork.mainSwitch.eth[2].queue outgoingDataRate:vector ETV
attr interpolationmode linear
attr recordingmode vector
attr source throughput(packetPulled)
attr title "outgoing datarate"
attr unit bps
vector 297 CampusNetwork.mainSwitch.eth[2].queue droppedPacketLengthsQueueOverflow:vector ETV
attr interpolationmode none
attr recordingmode vector
attr source packetLength(packetDropReasonIsQueueOverflow(packetDropped))
attr title "dropped packet lengths: queue overflow"
attr unit b
vector 298 CampusNetwork.mainSwitch.eth[2].queue flowQueueingTime:vector ETV
attr interpolationmode none
attr recordingmode vector
attr source queueingTime(demuxFlow(packetPulled))
attr title "flow queueing times"
attr unit s
vector 299 CampusNetwork.mainSwitch.eth[2].queue flowIncomingDataRate:vector ETV
attr interpolationmode linear
attr recordingmode vector
attr source throughput(flowPacketLength(demuxFlow(packetPushStarted)))
attr title "flow specific incoming data rate"
attr unit bps
vector 300 CampusNetwork.mainSwitch.eth[2].queue flowOutgoingDataRate:vector ETV
attr interpolationmode linear
attr recordingmode vector
attr source throughput(flowPacketLength(demuxFlow(packetPulled)))
attr title "flow specific outgoing data rate"
attr unit bps
vector 301 CampusNetwork.mainSwitch.eth[2].mac transmitting:vector ETV
attr interpolationmode sample-hold
attr recordingmode vector
attr source "count(transmissionStarted) - count(transmissionEnded)"
attr title "transmitting state"
attr type int
vector 302 CampusNetwork.mainSwitch.eth[2].mac throughput:vector ETV
attr interpolationmode linear
attr recordingmode vector
attr source throughput(transmissionEnded)
attr title throughput
attr unit bps
vector 303 CampusNetwork.mainSwitch.eth[2].mac utilization:vector ETV
attr interpolationmode linear
attr recordingmode vector
attr source "100 * utilization(count(transmissionStarted) - count(transmissionEnded))"
attr title utilization
attr unit %
vector 304 CampusNetwork.mainSwitch.eth[2].mac txPk:vector(packetBytes) ETV
attr interpolationmode none
attr recordingmode vector(packetBytes)
attr source packetSentToLower
attr title "packets transmitted, packetBytes"
vector 305 CampusNetwork.mainSwitch.eth[2].mac rxPkOk:vector(packetBytes) ETV
attr interpolationmode none
attr recordingmode vector(packetBytes)
attr source rxPkOk
attr title "packets received OK, packetBytes"
vector 306 CampusNetwork.mainSwitch.eth[2].mac passedUpPk:vector(packetBytes) ETV
attr interpolationmode none
attr recordingmode vector(packetBytes)
attr source packetSentToUpper
attr title "packets passed to higher layer, packetBytes"
vector 307 CampusNetwork.mainSwitch.eth[2].mac txPausePkUnits:vector ETV
attr interpolationmode none
attr recordingmode vector
attr title "pause units sent"
vector 308 CampusNetwork.mainSwitch.eth[2].mac rxPausePkUnits:vector ETV
attr interpolationmode none
attr recordingmode vector
attr title "pause units received"
vector 309 CampusNetwork.mainSwitch.eth[2].mac packetReceivedFromUpper:vector(packetBytes) ETV
[...]
2240	35428716 198 547763 554425 38.401527910803 38.857728263853 6 1046 1046 6276 6564696
2255	35428914 198 547760 554422 38.401527910803 38.857728263853 6 1008 1008 6048 6096384
2256	35429112 485 547760 556579 37.7 40 24 0 241920.00000000003 725760 123553382400.00002
2262	35429597 7421 556579 556579 0.1 40 400 0 0 0 0
2263	35437018 198 547759 554421 38.401527910803 38.857728263853 6 1000 1000 6000 6e+06
2266	35437216 330 540841 555834 37.850845861237 38.968472342199 10 1028 1028 10280 10567840
2273	35437546 300 540842 555835 37.850845861237 38.968472342199 10 0 0 0 0
2274	35437846 300 540842 555835 37.850845861237 38.968472342199 10 0 0 0 0
2275	35438146 300 540842 555835 37.850845861237 38.968472342199 10 0 0 0 0
2276	35438446 330 540842 555835 37.850845861237 38.968472342199 10 8368 8368 83680 700234240
2277	35438776 519 540842 556579 37.6 40 25 0 251040.00000000003 1004160 140046848000
2278	35439295 330 540842 555835 37.850845861237 38.968472342199 10 8368 8368 83680 700234240
2279	35439625 519 540842 556579 37.6 40 25 0 251040.00000000003 1004160 140046848000
2282	35440144 7421 556579 556579 0.1 40 400 0 0 0 0
2283	35447565 7421 556579 556579 0.1 40 400 0 0 0 0
2284	35454986 600 540842 555836 37.850845861237 38.968556662199 20 0 1 10 10
2285	35455586 519 540843 556579 37.6 40 25 0 252960.00000000003 1011840 142197248000
2286	35456105 535 540842 556579 37.6 40 25 0 0.25295999999999996 1.01184 0.142197248
2287	35456640 330 540843 555836 37.850930181237 38.968556662199 10 1046 1046 10460 10941160
2292	35456970 330 540842 555835 37.850845861237 38.968472342199 10 1046 1046 10460 10941160
2307	35457300 330 540839 555832 37.850845861237 38.968472342199 10 1008 1008 10080 10160640
2308	35457630 519 540839 556579 37.6 40 25 0 241920.00000000003 967680 130056192000.00002
2314	35458149 7421 556579 556579 0.1 40 400 0 0 0 0
2315	35465570 330 540838 555831 37.850845861237 38.968472342199 10 1000 1000 10000 1e+07
2318	35465900 296 540888 555270 37.853223749507 38.941318768955 9 1028 1028 9252 9511056
2325	35466196 269 540889 555271 37.853223749507 38.941318768955 9 0 0 0 0
2326	35466465 269 540889 555271 37.853223749507 38.941318768955 9 0 0 0 0
2327	35466734 269 540889 555271 37.853223749507 38.941318768955 9 0 0 0 0
2328	35467003 296 540889 555271 37.853223749507 38.941318768955 9 8368 8368 75312 630210816
2329	35467299 468 540889 556579 37.8 40 23 0 167360 836800 84028108800
2330	35467767 296 540889 555271 37.853223749507 38.941318768955 9 8368 8368 75312 630210816
2331	35468063 468 540889 556579 37.8 40 23 0 167360 836800 84028108800
2334	35468531 7421 556579 556579 0.1 40 400 0 0 0 0
2335	35475952 7421 556579 556579 0.1 40 400 0 0 0 0
2336	35483373 538 540889 555272 37.853223749507 38.941403088955 18 0 1 9 9
2337	35483911 468 540890 556579 37.8 40 23 0 168640 843200 85318348800
2338	35484379 485 540889 556579 37.8 40 23 0 0.16864 0.8432000000000001 0.08531834880000001
2339	35484864 296 540890 555272 37.853308069507 38.941403088955 9 1046 1046 9414 9847044
2344	35485160 296 540889 555271 37.853223749507 38.941318768955 9 1046 1046 9414 9847044
2359	35485456 296 540886 555268 37.853223749507 38.941318768955 9 1008 1008 9072 9144576
2360	35485752 468 540886 556579 37.8 40 23 0 161280 806400 78033715200
2366	35486220 7421 556579 556579 0.1 40 400 0 0 0 0
2367	35493641 296 540885 555267 37.853223749507 38.941318768955 9 1000 1000 9000 9e+06
2370	35493937 558 543003 556304 38.00267540398 38.993716198564 17 1028 1028 17476 17965328
2377	35494495 507 543004 556305 38.00267540398 38.993716198564 17 0 0 0 0
2378	35495002 507 543004 556305 38.00267540398 38.993716198564 17 0 0 0 0
2379	35495509 507 543004 556305 38.00267540398 38.993716198564 17 0 0 0 0
2380	35496016 558 543004 556305 38.00267540398 38.993716198564 17 8368 8368 142256 1190398208
2381	35496574 518 543004 556579 37.7 40 24 0 334720 1506240 308103065600
2382	35497092 558 543004 556305 38.00267540398 38.993716198564 17 8368 8368 142256 1190398208
2383	35497650 518 543004 556579 37.7 40 24 0 334720 1506240 308103065600
2386	35498168 7421 556579 556579 0.1 40 400 0 0 0 0
2387	35505589 7421 556579 556579 0.1 40 400 0 0 0 0
2388	35513010 1014 543004 556311 38.00267540398 38.993800518564 34 0 1 17 17
2389	35514024 518 543005 556579 37.7 40 24 0 337280 1517760 312833945600
2390	35514542 534 543004 556579 37.7 40 24 0 0.33728 1.51776 0.3128339456
2391	35515076 558 543005 556311 38.00275972398 38.993800518564 17 1046 1046 17782 18599972
2396	35515634 558 543004 556305 38.00267540398 38.993716198564 17 1046 1046 17782 18599972
2411	35516192 558 543001 556302 38.00267540398 38.993716198564 17 1008 1008 17136 17273088
2412	35516750 518 543001 556579 37.7 40 24 0 322560 1451520 286123622400
2418	35517268 7421 556579 556579 0.1 40 400 0 0 0 0
2419	35524689 558 543000 556301 38.00267540398 38.993716198564 17 1000 1000 17000 1.7e+07
2422	35525247 429 540042 556309 37.791577247753 38.993749162223 13 1028 1028 13364 13738192
2429	35525676 390 540043 556310 37.791577247753 38.993749162223 13 0 0 0 0
2430	35526066 390 540043 556310 37.791577247753 38.993749162223 13 0 0 0 0
2431	35526456 390 540043 556310 37.791577247753 38.993749162223 13 0 0 0 0
2432	35526846 429 540043 556310 37.791577247753 38.993749162223 13 8368 8368 108784 910304512
2433	35527275 482 542440 556579 37.8 40 23 0 334720 1255200 245081984000
2434	35527757 429 540043 556310 37.791577247753 38.993749162223 13 8368 8368 108784 910304512
2435	35528186 482 542440 556579 37.8 40 23 0 334720 1255200 245081984000
2438	35528668 7421 556579 556579 0.1 40 400 0 0 0 0
2439	35536089 7421 556579 556579 0.1 40 400 0 0 0 0
2440	35543510 780 540043 556318 37.791577247753 38.993833482223 26 0 1 13 13
2441	35544290 482 542441 556579 37.8 40 23 0 337280 1264800 248845184000
2442	35544772 497 542440 556579 37.8 40 23 0 0.33728 1.2648000000000001 0.248845184
2443	35545269 429 540044 556318 37.791661567753 38.993833482223 13 1046 1046 13598 14223508
2448	35545698 429 540043 556310 37.791577247753 38.993749162223 13 1046 1046 13598 14223508
2463	35546127 429 540040 556307 37.791577247753 38.993749162223 13 1008 1008 13104 13208832
2464	35546556 482 542437 556579 37.8 40 23 0 322560 1209600 227598336000
2470	35547038 7421 556579 556579 0.1 40 400 0 0 0 0
2471	35554459 429 540039 556306 37.791577247753 38.993749162223 13 1000 1000 13000 1.3e+07
2474	35554888 396 539948 553625 37.788723705954 38.817072495714 12 1028 1028 12336 12681408
2481	35555284 360 539949 553626 37.788723705954 38.817072495714 12 0 0 0 0
2482	35555644 360 539949 553626 37.788723705954 38.817072495714 12 0 0 0 0
2483	35556004 360 539949 553626 37.788723705954 38.817072495714 12 0 0 0 0
2484	35556364 396 539949 553626 37.788723705954 38.817072495714 12 8368 8368 100416 840281088
2485	35556760 482 540936 556579 37.8 40 23 0 251040.00000000003 1087840 161053875200
2486	35557242 396 539949 553626 37.788723705954 38.817072495714 12 8368 8368 100416 840281088
2487	35557638 482 540936 556579 37.8 40 23 0 251040.00000000003 1087840 161053875200
2490	35558120 7421 556579 556579 0.1 40 400 0 0 0 0
2491	35565541 7421 556579 556579 0.1 40 400 0 0 0 0
2492	35572962 720 539949 553627 37.788723705954 38.817156815714 24 0 1 12 12
2493	35573682 482 540937 556579 37.8 40 23 0 252960.00000000003 1096160 163526835200
2494	35574164 497 540936 556579 37.8 40 23 0 0.25295999999999996 1.09616 0.1635268352
2495	35574661 396 539950 553627 37.788808025954 38.817156815714 12 1046 1046 12552 13129392
2500	35575057 396 539949 553626 37.788723705954 38.817072495714 12 1046 1046 12552 13129392
2515	35575453 396 539946 553623 37.788723705954 38.817072495714 12 1008 1008 12096 12192768
2516	35575849 482 540933 556579 37.8 40 23 0 241920.00000000003 1048320 149564620800
2522	35576331 7421 556579 556579 0.1 40 400 0 0 0 0
2523	35583752 396 539945 553622 37.788723705954 38.817072495714 12 1000 1000 12000 1.2e+07
2526	35584148 198 542157 556445 37.935144857393 38.999905027472 6 1028 1028 6168 6340704
2533	35584346 180 542158 556446 37.935144857393 38.999905027472 6 0 0 0 0
2534	35584526 180 542158 556446 37.935144857393 38.999905027472 6 0 0 0 0
2535	35584706 180 542158 556446 37.935144857393 38.999905027472 6 0 0 0 0
2536	35584886 198 542158 556446 37.935144857393 38.999905027472 6 8368 8368 50208 420140544
2537	35585084 459 542158 556579 37.8 40 23 0 83680 585760 49016396800
2538	35585543 198 542158 556446 37.935144857393 38.999905027472 6 8368 8368 50208 420140544
2539	35585741 459 542158 556579 37.8 40 23 0 83680 585760 49016396800
2542	35586200 7421 556579 556579 0.1 40 400 0 0 0 0
2543	35593621 7421 556579 556579 0.1 40 400 0 0 0 0
2544	35601042 360 542158 556447 37.935144857393 38.999989347472 12 0 1 6 6
2545	35601402 459 542159 556579 37.8 40 23 0 84320 590240 49769036800
2546	35601861 473 542158 556579 37.8 40 23 0 0.08432 0.5902400000000001 0.049769036800000006
2547	35602334 198 542159 556447 37.935229177393 38.999989347472 6 1046 1046 6276 6564696
2552	35602532 198 542158 556446 37.935144857393 38.999905027472 6 1046 1046 6276 6564696
2567	35602730 198 542155 556443 37.935144857393 38.999905027472 6 1008 1008 6048 6096384
2568	35602928 459 542155 556579 37.8 40 23 0 80640 564480 45519667200
2574	35603387 7421 556579 556579 0.1 40 400 0 0 0 0
2575	35610808 198 542154 556442 37.935144857393 38.999905027472 6 1000 1000 6000 6e+06
2578	35611006 625 540418 555223 37.812530126032 38.940592926551 19 1028 1028 19532 20078896
2585	35611631 568 540419 555224 37.812530126032 38.940592926551 19 0 0 0 0
2586	35612199 568 540419 555224 37.812530126032 38.940592926551 19 0 0 0 0
2587	35612767 568 540419 555224 37.812530126032 38.940592926551 19 0 0 0 0
2588	35613335 625 540419 555224 37.812530126032 38.940592926551 19 8368 8368 158992 1330445056
2589	35613960 505 540419 556579 37.8 40 23 0 334720 1757280 357119462400
2590	35614465 625 540419 555224 37.812530126032 38.940592926551 19 8368 8368 158992 1330445056
2591	35615090 505 540419 556579 37.8 40 23 0 334720 1757280 357119462400
2594	35615595 7421 556579 556579 0.1 40 400 0 0 0 0
2595	35623016 7421 556579 556579 0.1 40 400 0 0 0 0
2596	35630437 1136 540419 555225 37.812530126032 38.940677246551 38 0 1 19 19
2597	35631573 505 540420 556579 37.8 40 23 0 337280 1770720 362602982400
2598	35632078 521 540419 556579 37.8 40 23 0 0.33728 1.77072 0.3626029824
2599	35632599 625 540420 555225 37.812614446032 38.940677246551 19 1046 1046 19874 20788204
2604	35633224 625 540419 555224 37.812530126032 38.940592926551 19 1046 1046 19874 20788204
2619	35633849 625 540416 555221 37.812530126032 38.940592926551 19 1008 1008 19152 19305216
2620	35634474 505 540416 556579 37.8 40 23 0 322560 1693440 331643289600
2626	35634979 7421 556579 556579 0.1 40 400 0 0 0 0
2627	35642400 625 540415 555220 37.812530126032 38.940592926551 19 1000 1000 19000 1.9e+07
2630	35643025 462 540747 554847 37.845619016923 38.882962329704 14 1028 1028 14392 14794976
2637	35643487 420 540748 554848 37.845619016923 38.882962329704 14 0 0 0 0
2638	35643907 420 540748 554848 37.845619016923 38.882962329704 14 0 0 0 0
2639	35644327 420 540748 554848 37.845619016923 38.882962329704 14 0 0 0 0
2640	35644747 462 540748 554848 37.845619016923 38.882962329704 14 8368 8368 117152 980327936
2641	35645209 483 540748 556579 37.8 40 23 0 334720 1338880 266089011200
2642	35645692 462 540748 554848 37.845619016923 38.882962329704 14 8368 8368 117152 980327936
2643	35646154 483 540748 556579 37.8 40 23 0 334720 1338880 266089011200
2646	35646637 7421 556579 556579 0.1 40 400 0 0 0 0
2647	35654058 7421 556579 556579 0.1 40 400 0 0 0 0
2648	35661479 840 540748 554849 37.845619016923 38.883046649704 28 0 1 14 14
2649	35662319 483 540749 556579 37.8 40 23 0 337280 1349120 270174771200
2650	35662802 497 540748 556579 37.8 40 23 0 0.33728 1.34912 0.2701747712
2651	35663299 462 540749 554849 37.845703336923 38.883046649704 14 1046 1046 14644 15317624
2656	35663761 462 540748 554848 37.845619016923 38.882962329704 14 1046 1046 14644 15317624
2671	35664223 462 540745 554845 37.845619016923 38.882962329704 14 1008 1008 14112 14224896
2672	35664685 483 540745 556579 37.8 40 23 0 322560 1290240 247106764800
2678	35665168 7421 556579 556579 0.1 40 400 0 0 0 0
2679	35672589 462 540744 554844 37.845619016923 38.882962329704 14 1000 1000 14000 1.4e+07
2682	35673051 396 542815 555698 37.989739253146 38.962169882383 12 1028 1028 12336 12681408
2689	35673447 360 542816 555699 37.989739253146 38.962169882383 12 0 0 0 0
2690	35673807 360 542816 555699 37.989739253146 38.962169882383 12 0 0 0 0
2691	35674167 360 542816 555699 37.989739253146 38.962169882383 12 0 0 0 0
2692	35674527 396 542816 555699 37.989739253146 38.962169882383 12 8368 8368 100416 840281088
2693	35674923 482 542816 556579 37.8 40 23 0 251040.00000000003 1087840 161053875200
2694	35675405 396 542816 555699 37.989739253146 38.962169882383 12 8368 8368 100416 840281088
2695	35675801 482 542816 556579 37.8 40 23 0 251040.00000000003 1087840 161053875200
2698	35676283 7421 556579 556579 0.1 40 400 0 0 0 0
2699	35683704 7421 556579 556579 0.1 40 400 0 0 0 0
2700	35691125 720 542816 555707 37.989739253146 38.962254202383 24 0 1 12 12
2701	35691845 482 542817 556579 37.8 40 23 0 252960.00000000003 1096160 163526835200
2702	35692327 497 542816 556579 37.8 40 23 0 0.25295999999999996 1.09616 0.1635268352
2703	35692824 396 542817 555707 37.989823573146 38.962254202383 12 1046 1046 12552 13129392
2708	35693220 396 542816 555699 37.989739253146 38.962169882383 12 1046 1046 12552 13129392
2723	35693616 396 542813 555696 37.989739253146 38.962169882383 12 1008 1008 12096 12192768
2724	35694012 482 542813 556579 37.8 40 23 0 241920.00000000003 1048320 149564620800
2730	35694494 7421 556579 556579 0.1 40 400 0 0 0 0
2731	35701915 396 542812 555695 37.989739253146 38.962169882383 12 1000 1000 12000 1.2e+07
2734	35702311 428 540465 556210 37.813864679101 38.990204837686 13 1028 1028 13364 13738192
2741	35702739 389 540466 556211 37.813864679101 38.990204837686 13 0 0 0 0
2742	35703128 389 540466 556211 37.813864679101 38.990204837686 13 0 0 0 0
2743	35703517 389 540466 556211 37.813864679101 38.990204837686 13 0 0 0 0
2744	35703906 428 540466 556211 37.813864679101 38.990204837686 13 8368 8368 108784 910304512
2745	35704334 542 540466 556579 37.6 40 25 0 251040.00000000003 1338880 266089011200.00006
2746	35704876 428 540466 556211 37.813864679101 38.990204837686 13 8368 8368 108784 910304512
2747	35705304 542 540466 556579 37.6 40 25 0 251040.00000000003 1338880 266089011200.00006
2750	35705846 7421 556579 556579 0.1 40 400 0 0 0 0
2751	35713267 7421 556579 556579 0.1 40 400 0 0 0 0
2752	35720688 778 540466 556212 37.813864679101 38.990289157686 26 0 1 13 13
2753	35721466 542 540467 556579 37.6 40 25 0 252960.00000000003 1349120 270174771200.00006
2754	35722008 553 540466 556579 37.6 40 25 0 0.25295999999999996 1.3491199999999999 0.27017477119999994
2755	35722561 428 540467 556212 37.813948999101 38.990289157686 13 1046 1046 13598 14223508
2760	35722989 428 540466 556211 37.813864679101 38.990204837686 13 1046 1046 13598 14223508
2775	35723417 428 540463 556208 37.813864679101 38.990204837686 13 1008 1008 13104 13208832
2776	35723845 542 540463 556579 37.6 40 25 0 241920.00000000003 1290240 247106764800.00006
2782	35724387 7421 556579 556579 0.1 40 400 0 0 0 0
2783	35731808 428 540462 556207 37.813864679101 38.990204837686 13 1000 1000 13000 1.3e+07
2786	35732236 329 540700 553907 37.843793101805 38.824141120481 10 1028 1028 10280 10567840
2793	35732565 299 540701 553908 37.843793101805 38.824141120481 10 0 0 0 0
2794	35732864 299 540701 553908 37.843793101805 38.824141120481 10 0 0 0 0
2795	35733163 299 540701 553908 37.843793101805 38.824141120481 10 0 0 0 0
2796	35733462 329 540701 553908 37.843793101805 38.824141120481 10 8368 8368 83680 700234240
2797	35733791 486 540701 556579 37.7 40 24 0 167360 1004160 140046848000
2798	35734277 329 540701 553908 37.843793101805 38.824141120481 10 8368 8368 83680 700234240
2799	35734606 486 540701 556579 37.7 40 24 0 167360 1004160 140046848000
2802	35735092 7421 556579 556579 0.1 40 400 0 0 0 0
2803	35742513 7421 556579 556579 0.1 40 400 0 0 0 0
2804	35749934 598 540701 553909 37.843793101805 38.824225440481 20 0 1 10 10
2805	35750532 486 540702 556579 37.7 40 24 0 168640 1011840 142197248000
2806	35751018 498 540701 556579 37.7 40 24 0 0.16864 1.01184 0.14219724800000003
2807	35751516 329 540702 553909 37.843877421805 38.824225440481 10 1046 1046 10460 10941160
2812	35751845 329 540701 553908 37.843793101805 38.824141120481 10 1046 1046 10460 10941160
2827	35752174 329 540698 553905 37.843793101805 38.824141120481 10 1008 1008 10080 10160640
2828	35752503 486 540698 556579 37.7 40 24 0 161280 967680 130056192000
2834	35752989 7421 556579 556579 0.1 40 400 0 0 0 0
2835	35760410 329 540697 553904 37.843793101805 38.824141120481 10 1000 1000 10000 1e+07
2838	35760739 362 543943 555317 38.077142005902 38.942846331181 11 1028 1028 11308 11624624
2845	35761101 329 543944 555318 38.077142005902 38.942846331181 11 0 0 0 0
2846	35761430 329 543944 555318 38.077142005902 38.942846331181 11 0 0 0 0
2847	35761759 329 543944 555318 38.077142005902 38.942846331181 11 0 0 0 0
2848	35762088 362 543944 555318 38.077142005902 38.942846331181 11 8368 8368 92048 770257664
2849	35762450 497 543944 556579 37.7 40 24 0 251040.00000000003 1004160 154051532800
2850	35762947 362 543944 555318 38.077142005902 38.942846331181 11 8368 8368 92048 770257664
2851	35763309 497 543944 556579 37.7 40 24 0 251040.00000000003 1004160 154051532800
2854	35763806 7421 556579 556579 0.1 40 400 0 0 0 0
2855	35771227 7421 556579 556579 0.1 40 400 0 0 0 0
2856	35778648 658 543944 555319 38.077142005902 38.942930651181 22 0 1 11 11
2857	35779306 497 543945 556579 37.7 40 24 0 252960.00000000003 1011840 156416972800
2858	35779803 510 543944 556579 37.7 40 24 0 0.25295999999999996 1.01184 0.1564169728
2859	35780313 362 543945 555319 38.077226325902 38.942930651181 11 1046 1046 11506 12035276
2864	35780675 362 543944 555318 38.077142005902 38.942846331181 11 1046 1046 11506 12035276
2879	35781037 362 543941 555315 38.077142005902 38.942846331181 11 1008 1008 11088 11176704
2880	35781399 497 543941 556579 37.7 40 24 0 241920.00000000003 967680 143061811200
2886	35781896 7421 556579 556579 0.1 40 400 0 0 0 0
2887	35789317 362 543940 555314 38.077142005902 38.942846331181 11 1000 1000 11000 1.1e+07
2890	35789679 363 541969 555458 37.919887797092 38.956985353179 11 1028 1028 11308 11624624
2897	35790042 330 541970 555459 37.919887797092 38.956985353179 11 0 0 0 0
2898	35790372 330 541970 555459 37.919887797092 38.956985353179 11 0 0 0 0
2899	35790702 330 541970 555459 37.919887797092 38.956985353179 11 0 0 0 0
2900	35791032 363 541970 555459 37.919887797092 38.956985353179 11 8368 8368 92048 770257664
2901	35791395 489 541970 556579 37.8 40 23 0 251040.00000000003 1004160 168056217600.00003
2902	35791884 363 541970 555459 37.919887797092 38.956985353179 11 8368 8368 92048 770257664
2903	35792247 489 541970 556579 37.8 40 23 0 251040.00000000003 1004160 168056217600.00003
2906	35792736 7421 556579 556579 0.1 40 400 0 0 0 0
2907	35800157 7421 556579 556579 0.1 40 400 0 0 0 0
2908	35807578 660 541970 555460 37.919887797092 38.957069673179 22 0 1 11 11
2909	35808238 489 541971 556579 37.8 40 23 0 252960.00000000003 1011840 170636697600.00003
2910	35808727 503 541970 556579 37.8 40 23 0 0.25295999999999996 1.0118399999999999 0.17063669759999997
2911	35809230 363 541971 555460 37.919972117092 38.957069673179 11 1046 1046 11506 12035276
2916	35809593 363 541970 555459 37.919887797092 38.956985353179 11 1046 1046 11506 12035276
2931	35809956 363 541967 555456 37.919887797092 38.956985353179 11 1008 1008 11088 11176704
2932	35810319 489 541967 556579 37.8 40 23 0 241920.00000000003 967680 156067430400.00003
2938	35810808 7421 556579 556579 0.1 40 400 0 0 0 0
2939	35818229 363 541966 555455 37.919887797092 38.956985353179 11 1000 1000 11000 1.1e+07

