version 3
run Scalability-0-20260528-21:46:56-86868
attr configname Scalability
attr datetime 20260528-21:46:56
attr datetimef 20260528-214656
attr experiment Scalability
attr inifile omnetpp.ini
attr iterationvars ""
attr iterationvarsd ""
attr iterationvarsf ""
attr measurement ""
attr network simulations.ned.CampusNetwork
attr processid 86868
attr repetition 0
attr replication #0
attr resultdir results
attr runnumber 0
attr seedset 0
config description "–Ý–∞—\xFF—\xFF–∏—\xFF–µ–Ω–Ω–∞—\xFF —\xFF–µ—\xFF—\xFF"
config *.numBranch1Hosts 25
config *.numBranch2Hosts 25
config *.branch1Host[*].app[*].messageLength 1200B
config *.branch1Host[*].app[*].sendInterval exponential(0.07s)
config *.branch2Host[*].app[*].messageLength 1200B
config *.branch2Host[*].app[*].sendInterval exponential(0.07s)
config network simulations.ned.CampusNetwork
config sim-time-limit 40s
config repeat 5
config seed-set 0
config **.crcMode "\"declared\""
config **.fcsMode "\"declared\""
config **.ipv4.checksum.typename InternetChecksum
config *.configurator.typename inet.networklayer.configurator.ipv4.Ipv4NetworkConfigurator
config *.configurator.addStaticRoutes true
config *.configurator.assignDisjunctSubnetAddresses true
config *.configurator.addDefaultRoutes true
config *.server1.numApps 1
config *.server1.app[*].typename UdpSink
config *.server1.app[*].localPort 5000
config *.server2.numApps 1
config *.server2.app[*].typename UdpSink
config *.server2.app[*].localPort 5001
config *.numBranch1Hosts 20
config *.numBranch2Hosts 20
config *.branch1Host[*].numApps 1
config *.branch1Host[*].app[*].typename UdpBasicApp
config *.branch1Host[*].app[*].destAddresses "\"server1\""
config *.branch1Host[*].app[*].destPort 5000
config *.branch1Host[*].app[*].startTime 0s
config *.branch1Host[*].app[*].stopTime 39s
config *.branch1Host[*].app[*].messageLength 1200B
config *.branch1Host[*].app[*].sendInterval exponential(0.07s)
config *.branch2Host[*].numApps 1
config *.branch2Host[*].app[*].typename UdpBasicApp
config *.branch2Host[*].app[*].destAddresses "\"server2\""
config *.branch2Host[*].app[*].destPort 5001
config *.branch2Host[*].app[*].startTime 0s
config *.branch2Host[*].app[*].stopTime 39s
config *.branch2Host[*].app[*].messageLength 1200B
config *.branch2Host[*].app[*].sendInterval exponential(0.07s)
config **.vector-recording true
config **.scalar-recording true
config **.endToEndDelay.vector-recording true
config *.scenarioManager.script "xml(\"<scenario><at t='10.0s'><shutdown module='mainRouter'/></at></scenario>\")"

par CampusNetwork.server1.ethg$o[0].channel typename "\"inet.node.ethernet.Eth1G\""
par CampusNetwork.server1.ethg$o[0].channel disabled false
attr mutable ""
par CampusNetwork.server1.ethg$o[0].channel delay 5e-08s
attr mutable ""
attr unit s
par CampusNetwork.server1.ethg$o[0].channel datarate 1e+09bps
attr mutable ""
attr unit bps
par CampusNetwork.server1.ethg$o[0].channel ber 0
attr mutable ""
par CampusNetwork.server1.ethg$o[0].channel per 0
attr mutable ""
par CampusNetwork.server1.ethg$o[0].channel enabledLineStyle "\"solid\""
par CampusNetwork.server1.ethg$o[0].channel disabledLineStyle "\"dashed\""
par CampusNetwork.server1.ethg$o[0].channel disabledIcon "\"status/cross\""
par CampusNetwork.server1.ethg$o[0].channel length 10m
attr unit m
par CampusNetwork.mainSwitch.ethg$o[0].channel typename "\"inet.node.ethernet.Eth1G\""
par CampusNetwork.mainSwitch.ethg$o[0].channel disabled false
attr mutable ""
par CampusNetwork.mainSwitch.ethg$o[0].channel delay 5e-08s
attr mutable ""
attr unit s
par CampusNetwork.mainSwitch.ethg$o[0].channel datarate 1e+09bps
attr mutable ""
attr unit bps
par CampusNetwork.mainSwitch.ethg$o[0].channel ber 0
attr mutable ""
par CampusNetwork.mainSwitch.ethg$o[0].channel per 0
attr mutable ""
par CampusNetwork.mainSwitch.ethg$o[0].channel enabledLineStyle "\"solid\""
par CampusNetwork.mainSwitch.ethg$o[0].channel disabledLineStyle "\"dashed\""
par CampusNetwork.mainSwitch.ethg$o[0].channel disabledIcon "\"status/cross\""
par CampusNetwork.mainSwitch.ethg$o[0].channel length 10m
attr unit m
par CampusNetwork.server2.ethg$o[0].channel typename "\"inet.node.ethernet.Eth1G\""
par CampusNetwork.server2.ethg$o[0].channel disabled false
attr mutable ""
par CampusNetwork.server2.ethg$o[0].channel delay 5e-08s
attr mutable ""
attr unit s
par CampusNetwork.server2.ethg$o[0].channel datarate 1e+09bps
attr mutable ""
attr unit bps
par CampusNetwork.server2.ethg$o[0].channel ber 0
attr mutable ""
par CampusNetwork.server2.ethg$o[0].channel per 0
attr mutable ""
par CampusNetwork.server2.ethg$o[0].channel enabledLineStyle "\"solid\""
par CampusNetwork.server2.ethg$o[0].channel disabledLineStyle "\"dashed\""
par CampusNetwork.server2.ethg$o[0].channel disabledIcon "\"status/cross\""
par CampusNetwork.server2.ethg$o[0].channel length 10m
attr unit m
par CampusNetwork.mainSwitch.ethg$o[1].channel typename "\"inet.node.ethernet.Eth1G\""
par CampusNetwork.mainSwitch.ethg$o[1].channel disabled false
attr mutable ""
par CampusNetwork.mainSwitch.ethg$o[1].channel delay 5e-08s
attr mutable ""
attr unit s
par CampusNetwork.mainSwitch.ethg$o[1].channel datarate 1e+09bps
attr mutable ""
attr unit bps
par CampusNetwork.mainSwitch.ethg$o[1].channel ber 0
attr mutable ""
par CampusNetwork.mainSwitch.ethg$o[1].channel per 0
attr mutable ""
par CampusNetwork.mainSwitch.ethg$o[1].channel enabledLineStyle "\"solid\""
par CampusNetwork.mainSwitch.ethg$o[1].channel disabledLineStyle "\"dashed\""
par CampusNetwork.mainSwitch.ethg$o[1].channel disabledIcon "\"status/cross\""
par CampusNetwork.mainSwitch.ethg$o[1].channel length 10m
attr unit m
par CampusNetwork.mainSwitch.ethg$o[2].channel typename "\"inet.node.ethernet.Eth1G\""
par CampusNetwork.mainSwitch.ethg$o[2].channel disabled false
attr mutable ""
par CampusNetwork.mainSwitch.ethg$o[2].channel delay 5e-08s
attr mutable ""
attr unit s
par CampusNetwork.mainSwitch.ethg$o[2].channel datarate 1e+09bps
attr mutable ""
attr unit bps
par CampusNetwork.mainSwitch.ethg$o[2].channel ber 0
attr mutable ""
par CampusNetwork.mainSwitch.ethg$o[2].channel per 0
attr mutable ""
par CampusNetwork.mainSwitch.ethg$o[2].channel enabledLineStyle "\"solid\""
par CampusNetwork.mainSwitch.ethg$o[2].channel disabledLineStyle "\"dashed\""
par CampusNetwork.mainSwitch.ethg$o[2].channel disabledIcon "\"status/cross\""
par CampusNetwork.mainSwitch.ethg$o[2].channel length 10m
attr unit m
par CampusNetwork.mainRouter.ethg$o[0].channel typename "\"inet.node.ethernet.Eth1G\""
par CampusNetwork.mainRouter.ethg$o[0].channel disabled false
attr mutable ""
par CampusNetwork.mainRouter.ethg$o[0].channel delay 5e-08s
attr mutable ""
attr unit s
par CampusNetwork.mainRouter.ethg$o[0].channel datarate 1e+09bps
attr mutable ""
attr unit bps
par CampusNetwork.mainRouter.ethg$o[0].channel ber 0
attr mutable ""
par CampusNetwork.mainRouter.ethg$o[0].channel per 0
attr mutable ""
par CampusNetwork.mainRouter.ethg$o[0].channel enabledLineStyle "\"solid\""
par CampusNetwork.mainRouter.ethg$o[0].channel disabledLineStyle "\"dashed\""
par CampusNetwork.mainRouter.ethg$o[0].channel disabledIcon "\"status/cross\""
par CampusNetwork.mainRouter.ethg$o[0].channel length 10m
attr unit m
par CampusNetwork.mainSwitch.ethg$o[3].channel typename "\"inet.node.ethernet.Eth100M\""
par CampusNetwork.mainSwitch.ethg$o[3].channel disabled false
attr mutable ""
par CampusNetwork.mainSwitch.ethg$o[3].channel delay 5e-08s
attr mutable ""
attr unit s
par CampusNetwork.mainSwitch.ethg$o[3].channel datarate 1e+08bps
attr mutable ""
attr unit bps
par CampusNetwork.mainSwitch.ethg$o[3].channel ber 0
attr mutable ""
par CampusNetwork.mainSwitch.ethg$o[3].channel per 0
attr mutable ""
par CampusNetwork.mainSwitch.ethg$o[3].channel enabledLineStyle "\"solid\""
par CampusNetwork.mainSwitch.ethg$o[3].channel disabledLineStyle "\"dashed\""
par CampusNetwork.mainSwitch.ethg$o[3].channel disabledIcon "\"status/cross\""
par CampusNetwork.mainSwitch.ethg$o[3].channel length 10m
attr unit m
par CampusNetwork.backupRouter.ethg$o[0].channel typename "\"inet.node.ethernet.Eth100M\""
par CampusNetwork.backupRouter.ethg$o[0].channel disabled false
attr mutable ""
par CampusNetwork.backupRouter.ethg$o[0].channel delay 5e-08s
attr mutable ""
attr unit s
par CampusNetwork.backupRouter.ethg$o[0].channel datarate 1e+08bps
attr mutable ""
attr unit bps
par CampusNetwork.backupRouter.ethg$o[0].channel ber 0
attr mutable ""
par CampusNetwork.backupRouter.ethg$o[0].channel per 0
attr mutable ""
par CampusNetwork.backupRouter.ethg$o[0].channel enabledLineStyle "\"solid\""
par CampusNetwork.backupRouter.ethg$o[0].channel disabledLineStyle "\"dashed\""
par CampusNetwork.backupRouter.ethg$o[0].channel disabledIcon "\"status/cross\""
par CampusNetwork.backupRouter.ethg$o[0].channel length 10m
attr unit m
par CampusNetwork.mainRouter.ethg$o[1].channel typename "\"inet.node.ethernet.Eth1G\""
par CampusNetwork.mainRouter.ethg$o[1].channel disabled false
attr mutable ""
par CampusNetwork.mainRouter.ethg$o[1].channel delay 5e-08s
attr mutable ""
attr unit s
par CampusNetwork.mainRouter.ethg$o[1].channel datarate 1e+09bps
attr mutable ""
attr unit bps
par CampusNetwork.mainRouter.ethg$o[1].channel ber 0
attr mutable ""
par CampusNetwork.mainRouter.ethg$o[1].channel per 0
attr mutable ""
par CampusNetwork.mainRouter.ethg$o[1].channel enabledLineStyle "\"solid\""
par CampusNetwork.mainRouter.ethg$o[1].channel disabledLineStyle "\"dashed\""
par CampusNetwork.mainRouter.ethg$o[1].channel disabledIcon "\"status/cross\""
par CampusNetwork.mainRouter.ethg$o[1].channel length 10m
attr unit m
par CampusNetwork.internet.ethg$o[0].channel typename "\"inet.node.ethernet.Eth1G\""
par CampusNetwork.internet.ethg$o[0].channel disabled false
attr mutable ""
par CampusNetwork.internet.ethg$o[0].channel delay 5e-08s
attr mutable ""
attr unit s
par CampusNetwork.internet.ethg$o[0].channel datarate 1e+09bps
attr mutable ""
attr unit bps
par CampusNetwork.internet.ethg$o[0].channel ber 0
attr mutable ""
par CampusNetwork.internet.ethg$o[0].channel per 0
attr mutable ""
par CampusNetwork.internet.ethg$o[0].channel enabledLineStyle "\"solid\""
par CampusNetwork.internet.ethg$o[0].channel disabledLineStyle "\"dashed\""
par CampusNetwork.internet.ethg$o[0].channel disabledIcon "\"status/cross\""
par CampusNetwork.internet.ethg$o[0].channel length 10m
attr unit m
par CampusNetwork.backupRouter.ethg$o[1].channel typename "\"inet.node.ethernet.Eth100M\""
par CampusNetwork.backupRouter.ethg$o[1].channel disabled false
attr mutable ""
par CampusNetwork.backupRouter.ethg$o[1].channel delay 5e-08s
attr mutable ""
attr unit s
par CampusNetwork.backupRouter.ethg$o[1].channel datarate 1e+08bps
attr mutable ""
attr unit bps
par CampusNetwork.backupRouter.ethg$o[1].channel ber 0
attr mutable ""
par CampusNetwork.backupRouter.ethg$o[1].channel per 0
attr mutable ""
par CampusNetwork.backupRouter.ethg$o[1].channel enabledLineStyle "\"solid\""
par CampusNetwork.backupRouter.ethg$o[1].channel disabledLineStyle "\"dashed\""
par CampusNetwork.backupRouter.ethg$o[1].channel disabledIcon "\"status/cross\""
par CampusNetwork.backupRouter.ethg$o[1].channel length 10m
attr unit m
par CampusNetwork.internet.ethg$o[1].channel typename "\"inet.node.ethernet.Eth100M\""
par CampusNetwork.internet.ethg$o[1].channel disabled false
attr mutable ""
par CampusNetwork.internet.ethg$o[1].channel delay 5e-08s
attr mutable ""
attr unit s
par CampusNetwork.internet.ethg$o[1].channel datarate 1e+08bps
attr mutable ""
attr unit bps
par CampusNetwork.internet.ethg$o[1].channel ber 0
attr mutable ""
par CampusNetwork.internet.ethg$o[1].channel per 0
attr mutable ""
par CampusNetwork.internet.ethg$o[1].channel enabledLineStyle "\"solid\""
par CampusNetwork.internet.ethg$o[1].channel disabledLineStyle "\"dashed\""
par CampusNetwork.internet.ethg$o[1].channel disabledIcon "\"status/cross\""
par CampusNetwork.internet.ethg$o[1].channel length 10m
attr unit m
par CampusNetwork.branch1Router.ethg$o[0].channel typename "\"inet.node.ethernet.Eth1G\""
par CampusNetwork.branch1Router.ethg$o[0].channel disabled false
attr mutable ""
par CampusNetwork.branch1Router.ethg$o[0].channel delay 5e-08s
attr mutable ""
attr unit s
par CampusNetwork.branch1Router.ethg$o[0].channel datarate 1e+09bps
attr mutable ""
attr unit bps
par CampusNetwork.branch1Router.ethg$o[0].channel ber 0
attr mutable ""
par CampusNetwork.branch1Router.ethg$o[0].channel per 0
attr mutable ""
par CampusNetwork.branch1Router.ethg$o[0].channel enabledLineStyle "\"solid\""
par CampusNetwork.branch1Router.ethg$o[0].channel disabledLineStyle "\"dashed\""
par CampusNetwork.branch1Router.ethg$o[0].channel disabledIcon "\"status/cross\""
par CampusNetwork.branch1Router.ethg$o[0].channel length 10m
attr unit m
par CampusNetwork.internet.ethg$o[2].channel typename "\"inet.node.ethernet.Eth1G\""
par CampusNetwork.internet.ethg$o[2].channel disabled false
attr mutable ""
par CampusNetwork.internet.ethg$o[2].channel delay 5e-08s
attr mutable ""
attr unit s
par CampusNetwork.internet.ethg$o[2].channel datarate 1e+09bps
attr mutable ""
attr unit bps
par CampusNetwork.internet.ethg$o[2].channel ber 0
attr mutable ""
par CampusNetwork.internet.ethg$o[2].channel per 0
attr mutable ""
par CampusNetwork.internet.ethg$o[2].channel enabledLineStyle "\"solid\""
par CampusNetwork.internet.ethg$o[2].channel disabledLineStyle "\"dashed\""
par CampusNetwork.internet.ethg$o[2].channel disabledIcon "\"status/cross\""
par CampusNetwork.internet.ethg$o[2].channel length 10m
attr unit m
par CampusNetwork.branch1Switch.ethg$o[0].channel typename "\"inet.node.ethernet.Eth100M\""
par CampusNetwork.branch1Switch.ethg$o[0].channel disabled false
attr mutable ""
par CampusNetwork.branch1Switch.ethg$o[0].channel delay 5e-08s
attr mutable ""
attr unit s
par CampusNetwork.branch1Switch.ethg$o[0].channel datarate 1e+08bps
attr mutable ""
attr unit bps
par CampusNetwork.branch1Switch.ethg$o[0].channel ber 0
attr mutable ""
par CampusNetwork.branch1Switch.ethg$o[0].channel per 0
attr mutable ""
par CampusNetwork.branch1Switch.ethg$o[0].channel enabledLineStyle "\"solid\""
par CampusNetwork.branch1Switch.ethg$o[0].channel disabledLineStyle "\"dashed\""
par CampusNetwork.branch1Switch.ethg$o[0].channel disabledIcon "\"status/cross\""
par CampusNetwork.branch1Switch.ethg$o[0].channel length 10m
attr unit m
par CampusNetwork.branch1Router.ethg$o[1].channel typename "\"inet.node.ethernet.Eth100M\""
par CampusNetwork.branch1Router.ethg$o[1].channel disabled false
attr mutable ""
par CampusNetwork.branch1Router.ethg$o[1].channel delay 5e-08s
attr mutable ""
attr unit s
par CampusNetwork.branch1Router.ethg$o[1].channel datarate 1e+08bps
attr mutable ""
attr unit bps
par CampusNetwork.branch1Router.ethg$o[1].channel ber 0
attr mutable ""
par CampusNetwork.branch1Router.ethg$o[1].channel per 0
attr mutable ""
par CampusNetwork.branch1Router.ethg$o[1].channel enabledLineStyle "\"solid\""
par CampusNetwork.branch1Router.ethg$o[1].channel disabledLineStyle "\"dashed\""
par CampusNetwork.branch1Router.ethg$o[1].channel disabledIcon "\"status/cross\""
par CampusNetwork.branch1Router.ethg$o[1].channel length 10m
attr unit m
par CampusNetwork.branch1Host[0].ethg$o[0].channel typename "\"inet.node.ethernet.Eth100M\""
par CampusNetwork.branch1Host[0].ethg$o[0].channel disabled false
attr mutable ""
par CampusNetwork.branch1Host[0].ethg$o[0].channel delay 5e-08s
attr mutable ""
attr unit s
par CampusNetwork.branch1Host[0].ethg$o[0].channel datarate 1e+08bps
attr mutable ""
attr unit bps
par CampusNetwork.branch1Host[0].ethg$o[0].channel ber 0
attr mutable ""
par CampusNetwork.branch1Host[0].ethg$o[0].channel per 0
attr mutable ""
par CampusNetwork.branch1Host[0].ethg$o[0].channel enabledLineStyle "\"solid\""
par CampusNetwork.branch1Host[0].ethg$o[0].channel disabledLineStyle "\"dashed\""
par CampusNetwork.branch1Host[0].ethg$o[0].channel disabledIcon "\"status/cross\""
par CampusNetwork.branch1Host[0].ethg$o[0].channel length 10m
attr unit m
par CampusNetwork.branch1Switch.ethg$o[1].channel typename "\"inet.node.ethernet.Eth100M\""
par CampusNetwork.branch1Switch.ethg$o[1].channel disabled false
attr mutable ""
par CampusNetwork.branch1Switch.ethg$o[1].channel delay 5e-08s
attr mutable ""
attr unit s
par CampusNetwork.branch1Switch.ethg$o[1].channel datarate 1e+08bps
attr mutable ""
attr unit bps
par CampusNetwork.branch1Switch.ethg$o[1].channel ber 0
attr mutable ""
par CampusNetwork.branch1Switch.ethg$o[1].channel per 0
attr mutable ""
par CampusNetwork.branch1Switch.ethg$o[1].channel enabledLineStyle "\"solid\""
par CampusNetwork.branch1Switch.ethg$o[1].channel disabledLineStyle "\"dashed\""
par CampusNetwork.branch1Switch.ethg$o[1].channel disabledIcon "\"status/cross\""
par CampusNetwork.branch1Switch.ethg$o[1].channel length 10m
attr unit m
par CampusNetwork.branch1Host[1].ethg$o[0].channel typename "\"inet.node.ethernet.Eth100M\""
par CampusNetwork.branch1Host[1].ethg$o[0].channel disabled false
attr mutable ""
par CampusNetwork.branch1Host[1].ethg$o[0].channel delay 5e-08s
attr mutable ""
attr unit s
par CampusNetwork.branch1Host[1].ethg$o[0].channel datarate 1e+08bps
attr mutable ""
attr unit bps
par CampusNetwork.branch1Host[1].ethg$o[0].channel ber 0
attr mutable ""
par CampusNetwork.branch1Host[1].ethg$o[0].channel per 0
attr mutable ""
par CampusNetwork.branch1Host[1].ethg$o[0].channel enabledLineStyle "\"solid\""
par CampusNetwork.branch1Host[1].ethg$o[0].channel disabledLineStyle "\"dashed\""
par CampusNetwork.branch1Host[1].ethg$o[0].channel disabledIcon "\"status/cross\""
par CampusNetwork.branch1Host[1].ethg$o[0].channel length 10m
attr unit m
par CampusNetwork.branch1Switch.ethg$o[2].channel typename "\"inet.node.ethernet.Eth100M\""
par CampusNetwork.branch1Switch.ethg$o[2].channel disabled false
attr mutable ""
par CampusNetwork.branch1Switch.ethg$o[2].channel delay 5e-08s
attr mutable ""
attr unit s
par CampusNetwork.branch1Switch.ethg$o[2].channel datarate 1e+08bps
attr mutable ""
attr unit bps
par CampusNetwork.branch1Switch.ethg$o[2].channel ber 0
attr mutable ""
par CampusNetwork.branch1Switch.ethg$o[2].channel per 0
attr mutable ""
par CampusNetwork.branch1Switch.ethg$o[2].channel enabledLineStyle "\"solid\""
par CampusNetwork.branch1Switch.ethg$o[2].channel disabledLineStyle "\"dashed\""
par CampusNetwork.branch1Switch.ethg$o[2].channel disabledIcon "\"status/cross\""
par CampusNetwork.branch1Switch.ethg$o[2].channel length 10m
attr unit m
par CampusNetwork.branch1Host[2].ethg$o[0].channel typename "\"inet.node.ethernet.Eth100M\""
par CampusNetwork.branch1Host[2].ethg$o[0].channel disabled false
attr mutable ""
par CampusNetwork.branch1Host[2].ethg$o[0].channel delay 5e-08s
attr mutable ""
attr unit s
par CampusNetwork.branch1Host[2].ethg$o[0].channel datarate 1e+08bps
attr mutable ""
attr unit bps
par CampusNetwork.branch1Host[2].ethg$o[0].channel ber 0
attr mutable ""
par CampusNetwork.branch1Host[2].ethg$o[0].channel per 0
attr mutable ""
par CampusNetwork.branch1Host[2].ethg$o[0].channel enabledLineStyle "\"solid\""
par CampusNetwork.branch1Host[2].ethg$o[0].channel disabledLineStyle "\"dashed\""
par CampusNetwork.branch1Host[2].ethg$o[0].channel disabledIcon "\"status/cross\""
par CampusNetwork.branch1Host[2].ethg$o[0].channel length 10m
attr unit m
par CampusNetwork.branch1Switch.ethg$o[3].channel typename "\"inet.node.ethernet.Eth100M\""
par CampusNetwork.branch1Switch.ethg$o[3].channel disabled false
attr mutable ""
par CampusNetwork.branch1Switch.ethg$o[3].channel delay 5e-08s
attr mutable ""
attr unit s
par CampusNetwork.branch1Switch.ethg$o[3].channel datarate 1e+08bps
attr mutable ""
attr unit bps
par CampusNetwork.branch1Switch.ethg$o[3].channel ber 0
attr mutable ""
par CampusNetwork.branch1Switch.ethg$o[3].channel per 0
attr mutable ""
par CampusNetwork.branch1Switch.ethg$o[3].channel enabledLineStyle "\"solid\""
par CampusNetwork.branch1Switch.ethg$o[3].channel disabledLineStyle "\"dashed\""
par CampusNetwork.branch1Switch.ethg$o[3].channel disabledIcon "\"status/cross\""
par CampusNetwork.branch1Switch.ethg$o[3].channel length 10m
attr unit m
par CampusNetwork.branch1Host[3].ethg$o[0].channel typename "\"inet.node.ethernet.Eth100M\""
par CampusNetwork.branch1Host[3].ethg$o[0].channel disabled false
attr mutable ""
par CampusNetwork.branch1Host[3].ethg$o[0].channel delay 5e-08s
attr mutable ""
attr unit s
par CampusNetwork.branch1Host[3].ethg$o[0].channel datarate 1e+08bps
attr mutable ""
attr unit bps
par CampusNetwork.branch1Host[3].ethg$o[0].channel ber 0
attr mutable ""
par CampusNetwork.branch1Host[3].ethg$o[0].channel per 0
attr mutable ""
par CampusNetwork.branch1Host[3].ethg$o[0].channel enabledLineStyle "\"solid\""
par CampusNetwork.branch1Host[3].ethg$o[0].channel disabledLineStyle "\"dashed\""
par CampusNetwork.branch1Host[3].ethg$o[0].channel disabledIcon "\"status/cross\""
par CampusNetwork.branch1Host[3].ethg$o[0].channel length 10m
attr unit m
par CampusNetwork.branch1Switch.ethg$o[4].channel typename "\"inet.node.ethernet.Eth100M\""
par CampusNetwork.branch1Switch.ethg$o[4].channel disabled false
attr mutable ""
par CampusNetwork.branch1Switch.ethg$o[4].channel delay 5e-08s
attr mutable ""
attr unit s
par CampusNetwork.branch1Switch.ethg$o[4].channel datarate 1e+08bps
attr mutable ""
attr unit bps
par CampusNetwork.branch1Switch.ethg$o[4].channel ber 0
attr mutable ""
par CampusNetwork.branch1Switch.ethg$o[4].channel per 0
attr mutable ""
par CampusNetwork.branch1Switch.ethg$o[4].channel enabledLineStyle "\"solid\""
par CampusNetwork.branch1Switch.ethg$o[4].channel disabledLineStyle "\"dashed\""
par CampusNetwork.branch1Switch.ethg$o[4].channel disabledIcon "\"status/cross\""
par CampusNetwork.branch1Switch.ethg$o[4].channel length 10m
attr unit m
par CampusNetwork.branch1Host[4].ethg$o[0].channel typename "\"inet.node.ethernet.Eth100M\""
par CampusNetwork.branch1Host[4].ethg$o[0].channel disabled false
attr mutable ""
par CampusNetwork.branch1Host[4].ethg$o[0].channel delay 5e-08s
attr mutable ""
attr unit s
par CampusNetwork.branch1Host[4].ethg$o[0].channel datarate 1e+08bps
attr mutable ""
attr unit bps
par CampusNetwork.branch1Host[4].ethg$o[0].channel ber 0
attr mutable ""
par CampusNetwork.branch1Host[4].ethg$o[0].channel per 0
attr mutable ""
par CampusNetwork.branch1Host[4].ethg$o[0].channel enabledLineStyle "\"solid\""
par CampusNetwork.branch1Host[4].ethg$o[0].channel disabledLineStyle "\"dashed\""
par CampusNetwork.branch1Host[4].ethg$o[0].channel disabledIcon "\"status/cross\""
par CampusNetwork.branch1Host[4].ethg$o[0].channel length 10m
attr unit m
par CampusNetwork.branch1Switch.ethg$o[5].channel typename "\"inet.node.ethernet.Eth100M\""
par CampusNetwork.branch1Switch.ethg$o[5].channel disabled false
attr mutable ""
par CampusNetwork.branch1Switch.ethg$o[5].channel delay 5e-08s
attr mutable ""
attr unit s
par CampusNetwork.branch1Switch.ethg$o[5].channel datarate 1e+08bps
attr mutable ""
attr unit bps
par CampusNetwork.branch1Switch.ethg$o[5].channel ber 0
attr mutable ""
par CampusNetwork.branch1Switch.ethg$o[5].channel per 0
attr mutable ""
par CampusNetwork.branch1Switch.ethg$o[5].channel enabledLineStyle "\"solid\""
par CampusNetwork.branch1Switch.ethg$o[5].channel disabledLineStyle "\"dashed\""
par CampusNetwork.branch1Switch.ethg$o[5].channel disabledIcon "\"status/cross\""
par CampusNetwork.branch1Switch.ethg$o[5].channel length 10m
attr unit m
par CampusNetwork.branch1Host[5].ethg$o[0].channel typename "\"inet.node.ethernet.Eth100M\""
par CampusNetwork.branch1Host[5].ethg$o[0].channel disabled false
attr mutable ""
par CampusNetwork.branch1Host[5].ethg$o[0].channel delay 5e-08s
attr mutable ""
attr unit s
par CampusNetwork.branch1Host[5].ethg$o[0].channel datarate 1e+08bps
attr mutable ""
attr unit bps
par CampusNetwork.branch1Host[5].ethg$o[0].channel ber 0
attr mutable ""
par CampusNetwork.branch1Host[5].ethg$o[0].channel per 0
attr mutable ""
par CampusNetwork.branch1Host[5].ethg$o[0].channel enabledLineStyle "\"solid\""
par CampusNetwork.branch1Host[5].ethg$o[0].channel disabledLineStyle "\"dashed\""
par CampusNetwork.branch1Host[5].ethg$o[0].channel disabledIcon "\"status/cross\""
par CampusNetwork.branch1Host[5].ethg$o[0].channel length 10m
attr unit m
par CampusNetwork.branch1Switch.ethg$o[6].channel typename "\"inet.node.ethernet.Eth100M\""
par CampusNetwork.branch1Switch.ethg$o[6].channel disabled false
attr mutable ""
par CampusNetwork.branch1Switch.ethg$o[6].channel delay 5e-08s
attr mutable ""
attr unit s
par CampusNetwork.branch1Switch.ethg$o[6].channel datarate 1e+08bps
attr mutable ""
attr unit bps
par CampusNetwork.branch1Switch.ethg$o[6].channel ber 0
attr mutable ""
par CampusNetwork.branch1Switch.ethg$o[6].channel per 0
attr mutable ""
par CampusNetwork.branch1Switch.ethg$o[6].channel enabledLineStyle "\"solid\""
par CampusNetwork.branch1Switch.ethg$o[6].channel disabledLineStyle "\"dashed\""
par CampusNetwork.branch1Switch.ethg$o[6].channel disabledIcon "\"status/cross\""
par CampusNetwork.branch1Switch.ethg$o[6].channel length 10m
attr unit m
par CampusNetwork.branch1Host[6].ethg$o[0].channel typename "\"inet.node.ethernet.Eth100M\""
par CampusNetwork.branch1Host[6].ethg$o[0].channel disabled false
attr mutable ""
par CampusNetwork.branch1Host[6].ethg$o[0].channel delay 5e-08s
attr mutable ""
attr unit s
par CampusNetwork.branch1Host[6].ethg$o[0].channel datarate 1e+08bps
attr mutable ""
attr unit bps
par CampusNetwork.branch1Host[6].ethg$o[0].channel ber 0
attr mutable ""
par CampusNetwork.branch1Host[6].ethg$o[0].channel per 0
attr mutable ""
par CampusNetwork.branch1Host[6].ethg$o[0].channel enabledLineStyle "\"solid\""
par CampusNetwork.branch1Host[6].ethg$o[0].channel disabledLineStyle "\"dashed\""
par CampusNetwork.branch1Host[6].ethg$o[0].channel disabledIcon "\"status/cross\""
par CampusNetwork.branch1Host[6].ethg$o[0].channel length 10m
attr unit m
par CampusNetwork.branch1Switch.ethg$o[7].channel typename "\"inet.node.ethernet.Eth100M\""
par CampusNetwork.branch1Switch.ethg$o[7].channel disabled false
attr mutable ""
par CampusNetwork.branch1Switch.ethg$o[7].channel delay 5e-08s
attr mutable ""
attr unit s
par CampusNetwork.branch1Switch.ethg$o[7].channel datarate 1e+08bps
attr mutable ""
attr unit bps
par CampusNetwork.branch1Switch.ethg$o[7].channel ber 0
attr mutable ""
par CampusNetwork.branch1Switch.ethg$o[7].channel per 0
attr mutable ""
par CampusNetwork.branch1Switch.ethg$o[7].channel enabledLineStyle "\"solid\""
par CampusNetwork.branch1Switch.ethg$o[7].channel disabledLineStyle "\"dashed\""
par CampusNetwork.branch1Switch.ethg$o[7].channel disabledIcon "\"status/cross\""
par CampusNetwork.branch1Switch.ethg$o[7].channel length 10m
attr unit m
par CampusNetwork.branch1Host[7].ethg$o[0].channel typename "\"inet.node.ethernet.Eth100M\""
par CampusNetwork.branch1Host[7].ethg$o[0].channel disabled false
attr mutable ""
par CampusNetwork.branch1Host[7].ethg$o[0].channel delay 5e-08s
attr mutable ""
attr unit s
par CampusNetwork.branch1Host[7].ethg$o[0].channel datarate 1e+08bps
attr mutable ""
attr unit bps
par CampusNetwork.branch1Host[7].ethg$o[0].channel ber 0
attr mutable ""
par CampusNetwork.branch1Host[7].ethg$o[0].channel per 0
attr mutable ""
par CampusNetwork.branch1Host[7].ethg$o[0].channel enabledLineStyle "\"solid\""
par CampusNetwork.branch1Host[7].ethg$o[0].channel disabledLineStyle "\"dashed\""
par CampusNetwork.branch1Host[7].ethg$o[0].channel disabledIcon "\"status/cross\""
par CampusNetwork.branch1Host[7].ethg$o[0].channel length 10m
attr unit m
par CampusNetwork.branch1Switch.ethg$o[8].channel typename "\"inet.node.ethernet.Eth100M\""
par CampusNetwork.branch1Switch.ethg$o[8].channel disabled false
attr mutable ""
par CampusNetwork.branch1Switch.ethg$o[8].channel delay 5e-08s
attr mutable ""
attr unit s
par CampusNetwork.branch1Switch.ethg$o[8].channel datarate 1e+08bps
attr mutable ""
attr unit bps
par CampusNetwork.branch1Switch.ethg$o[8].channel ber 0
attr mutable ""
par CampusNetwork.branch1Switch.ethg$o[8].channel per 0
attr mutable ""
par CampusNetwork.branch1Switch.ethg$o[8].channel enabledLineStyle "\"solid\""
par CampusNetwork.branch1Switch.ethg$o[8].channel disabledLineStyle "\"dashed\""
par CampusNetwork.branch1Switch.ethg$o[8].channel disabledIcon "\"status/cross\""
par CampusNetwork.branch1Switch.ethg$o[8].channel length 10m
attr unit m
par CampusNetwork.branch1Host[8].ethg$o[0].channel typename "\"inet.node.ethernet.Eth100M\""
par CampusNetwork.branch1Host[8].ethg$o[0].channel disabled false
attr mutable ""
par CampusNetwork.branch1Host[8].ethg$o[0].channel delay 5e-08s
attr mutable ""
attr unit s
par CampusNetwork.branch1Host[8].ethg$o[0].channel datarate 1e+08bps
attr mutable ""
attr unit bps
par CampusNetwork.branch1Host[8].ethg$o[0].channel ber 0
attr mutable ""
par CampusNetwork.branch1Host[8].ethg$o[0].channel per 0
attr mutable ""
par CampusNetwork.branch1Host[8].ethg$o[0].channel enabledLineStyle "\"solid\""
par CampusNetwork.branch1Host[8].ethg$o[0].channel disabledLineStyle "\"dashed\""
par CampusNetwork.branch1Host[8].ethg$o[0].channel disabledIcon "\"status/cross\""
par CampusNetwork.branch1Host[8].ethg$o[0].channel length 10m
attr unit m
par CampusNetwork.branch1Switch.ethg$o[9].channel typename "\"inet.node.ethernet.Eth100M\""
par CampusNetwork.branch1Switch.ethg$o[9].channel disabled false
attr mutable ""
par CampusNetwork.branch1Switch.ethg$o[9].channel delay 5e-08s
attr mutable ""
attr unit s
par CampusNetwork.branch1Switch.ethg$o[9].channel datarate 1e+08bps
attr mutable ""
attr unit bps
par CampusNetwork.branch1Switch.ethg$o[9].channel ber 0
attr mutable ""
par CampusNetwork.branch1Switch.ethg$o[9].channel per 0
attr mutable ""
par CampusNetwork.branch1Switch.ethg$o[9].channel enabledLineStyle "\"solid\""
par CampusNetwork.branch1Switch.ethg$o[9].channel disabledLineStyle "\"dashed\""
par CampusNetwork.branch1Switch.ethg$o[9].channel disabledIcon "\"status/cross\""
par CampusNetwork.branch1Switch.ethg$o[9].channel length 10m
attr unit m
par CampusNetwork.branch1Host[9].ethg$o[0].channel typename "\"inet.node.ethernet.Eth100M\""
par CampusNetwork.branch1Host[9].ethg$o[0].channel disabled false
attr mutable ""
par CampusNetwork.branch1Host[9].ethg$o[0].channel delay 5e-08s
attr mutable ""
attr unit s
par CampusNetwork.branch1Host[9].ethg$o[0].channel datarate 1e+08bps
attr mutable ""
attr unit bps
par CampusNetwork.branch1Host[9].ethg$o[0].channel ber 0
attr mutable ""
par CampusNetwork.branch1Host[9].ethg$o[0].channel per 0
attr mutable ""
par CampusNetwork.branch1Host[9].ethg$o[0].channel enabledLineStyle "\"solid\""
par CampusNetwork.branch1Host[9].ethg$o[0].channel disabledLineStyle "\"dashed\""
par CampusNetwork.branch1Host[9].ethg$o[0].channel disabledIcon "\"status/cross\""
par CampusNetwork.branch1Host[9].ethg$o[0].channel length 10m
attr unit m
par CampusNetwork.branch1Switch.ethg$o[10].channel typename "\"inet.node.ethernet.Eth100M\""
par CampusNetwork.branch1Switch.ethg$o[10].channel disabled false
attr mutable ""
par CampusNetwork.branch1Switch.ethg$o[10].channel delay 5e-08s
attr mutable ""
attr unit s
par CampusNetwork.branch1Switch.ethg$o[10].channel datarate 1e+08bps
attr mutable ""
attr unit bps
par CampusNetwork.branch1Switch.ethg$o[10].channel ber 0
attr mutable ""
par CampusNetwork.branch1Switch.ethg$o[10].channel per 0
attr mutable ""
par CampusNetwork.branch1Switch.ethg$o[10].channel enabledLineStyle "\"solid\""
par CampusNetwork.branch1Switch.ethg$o[10].channel disabledLineStyle "\"dashed\""
par CampusNetwork.branch1Switch.ethg$o[10].channel disabledIcon "\"status/cross\""
par CampusNetwork.branch1Switch.ethg$o[10].channel length 10m
attr unit m
par CampusNetwork.branch1Host[10].ethg$o[0].channel typename "\"inet.node.ethernet.Eth100M\""
par CampusNetwork.branch1Host[10].ethg$o[0].channel disabled false
attr mutable ""
par CampusNetwork.branch1Host[10].ethg$o[0].channel delay 5e-08s
attr mutable ""
attr unit s
par CampusNetwork.branch1Host[10].ethg$o[0].channel datarate 1e+08bps
attr mutable ""
attr unit bps
par CampusNetwork.branch1Host[10].ethg$o[0].channel ber 0
attr mutable ""
par CampusNetwork.branch1Host[10].ethg$o[0].channel per 0
attr mutable ""
par CampusNetwork.branch1Host[10].ethg$o[0].channel enabledLineStyle "\"solid\""
par CampusNetwork.branch1Host[10].ethg$o[0].channel disabledLineStyle "\"dashed\""
par CampusNetwork.branch1Host[10].ethg$o[0].channel disabledIcon "\"status/cross\""
par CampusNetwork.branch1Host[10].ethg$o[0].channel length 10m
attr unit m
par CampusNetwork.branch1Switch.ethg$o[11].channel typename "\"inet.node.ethernet.Eth100M\""
par CampusNetwork.branch1Switch.ethg$o[11].channel disabled false
attr mutable ""
par CampusNetwork.branch1Switch.ethg$o[11].channel delay 5e-08s
attr mutable ""
attr unit s
par CampusNetwork.branch1Switch.ethg$o[11].channel datarate 1e+08bps
attr mutable ""
attr unit bps
par CampusNetwork.branch1Switch.ethg$o[11].channel ber 0
attr mutable ""
par CampusNetwork.branch1Switch.ethg$o[11].channel per 0
attr mutable ""
par CampusNetwork.branch1Switch.ethg$o[11].channel enabledLineStyle "\"solid\""
par CampusNetwork.branch1Switch.ethg$o[11].channel disabledLineStyle "\"dashed\""
par CampusNetwork.branch1Switch.ethg$o[11].channel disabledIcon "\"status/cross\""
par CampusNetwork.branch1Switch.ethg$o[11].channel length 10m
attr unit m
par CampusNetwork.branch1Host[11].ethg$o[0].channel typename "\"inet.node.ethernet.Eth100M\""
par CampusNetwork.branch1Host[11].ethg$o[0].channel disabled false
attr mutable ""
par CampusNetwork.branch1Host[11].ethg$o[0].channel delay 5e-08s
attr mutable ""
attr unit s
par CampusNetwork.branch1Host[11].ethg$o[0].channel datarate 1e+08bps
attr mutable ""
attr unit bps
par CampusNetwork.branch1Host[11].ethg$o[0].channel ber 0
attr mutable ""
par CampusNetwork.branch1Host[11].ethg$o[0].channel per 0
attr mutable ""
par CampusNetwork.branch1Host[11].ethg$o[0].channel enabledLineStyle "\"solid\""
par CampusNetwork.branch1Host[11].ethg$o[0].channel disabledLineStyle "\"dashed\""
par CampusNetwork.branch1Host[11].ethg$o[0].channel disabledIcon "\"status/cross\""
par CampusNetwork.branch1Host[11].ethg$o[0].channel length 10m
attr unit m
par CampusNetwork.branch1Switch.ethg$o[12].channel typename "\"inet.node.ethernet.Eth100M\""
par CampusNetwork.branch1Switch.ethg$o[12].channel disabled false
attr mutable ""
par CampusNetwork.branch1Switch.ethg$o[12].channel delay 5e-08s
attr mutable ""
attr unit s
par CampusNetwork.branch1Switch.ethg$o[12].channel datarate 1e+08bps
attr mutable ""
attr unit bps
par CampusNetwork.branch1Switch.ethg$o[12].channel ber 0
attr mutable ""
par CampusNetwork.branch1Switch.ethg$o[12].channel per 0
attr mutable ""
par CampusNetwork.branch1Switch.ethg$o[12].channel enabledLineStyle "\"solid\""
par CampusNetwork.branch1Switch.ethg$o[12].channel disabledLineStyle "\"dashed\""
par CampusNetwork.branch1Switch.ethg$o[12].channel disabledIcon "\"status/cross\""
par CampusNetwork.branch1Switch.ethg$o[12].channel length 10m
attr unit m
par CampusNetwork.branch1Host[12].ethg$o[0].channel typename "\"inet.node.ethernet.Eth100M\""
par CampusNetwork.branch1Host[12].ethg$o[0].channel disabled false
attr mutable ""
par CampusNetwork.branch1Host[12].ethg$o[0].channel delay 5e-08s
attr mutable ""
attr unit s
par CampusNetwork.branch1Host[12].ethg$o[0].channel datarate 1e+08bps
attr mutable ""
attr unit bps
par CampusNetwork.branch1Host[12].ethg$o[0].channel ber 0
attr mutable ""
par CampusNetwork.branch1Host[12].ethg$o[0].channel per 0
attr mutable ""
par CampusNetwork.branch1Host[12].ethg$o[0].channel enabledLineStyle "\"solid\""
par CampusNetwork.branch1Host[12].ethg$o[0].channel disabledLineStyle "\"dashed\""
par CampusNetwork.branch1Host[12].ethg$o[0].channel disabledIcon "\"status/cross\""
par CampusNetwork.branch1Host[12].ethg$o[0].channel length 10m
attr unit m
par CampusNetwork.branch1Switch.ethg$o[13].channel typename "\"inet.node.ethernet.Eth100M\""
par CampusNetwork.branch1Switch.ethg$o[13].channel disabled false
attr mutable ""
par CampusNetwork.branch1Switch.ethg$o[13].channel delay 5e-08s
attr mutable ""
attr unit s
par CampusNetwork.branch1Switch.ethg$o[13].channel datarate 1e+08bps
attr mutable ""
attr unit bps
par CampusNetwork.branch1Switch.ethg$o[13].channel ber 0
attr mutable ""
par CampusNetwork.branch1Switch.ethg$o[13].channel per 0
attr mutable ""
par CampusNetwork.branch1Switch.ethg$o[13].channel enabledLineStyle "\"solid\""
par CampusNetwork.branch1Switch.ethg$o[13].channel disabledLineStyle "\"dashed\""
par CampusNetwork.branch1Switch.ethg$o[13].channel disabledIcon "\"status/cross\""
par CampusNetwork.branch1Switch.ethg$o[13].channel length 10m
attr unit m
par CampusNetwork.branch1Host[13].ethg$o[0].channel typename "\"inet.node.ethernet.Eth100M\""
par CampusNetwork.branch1Host[13].ethg$o[0].channel disabled false
attr mutable ""
par CampusNetwork.branch1Host[13].ethg$o[0].channel delay 5e-08s
attr mutable ""
attr unit s
par CampusNetwork.branch1Host[13].ethg$o[0].channel datarate 1e+08bps
attr mutable ""
attr unit bps
par CampusNetwork.branch1Host[13].ethg$o[0].channel ber 0
attr mutable ""
par CampusNetwork.branch1Host[13].ethg$o[0].channel per 0
attr mutable ""
par CampusNetwork.branch1Host[13].ethg$o[0].channel enabledLineStyle "\"solid\""
par CampusNetwork.branch1Host[13].ethg$o[0].channel disabledLineStyle "\"dashed\""
par CampusNetwork.branch1Host[13].ethg$o[0].channel disabledIcon "\"status/cross\""
par CampusNetwork.branch1Host[13].ethg$o[0].channel length 10m
attr unit m
par CampusNetwork.branch1Switch.ethg$o[14].channel typename "\"inet.node.ethernet.Eth100M\""
par CampusNetwork.branch1Switch.ethg$o[14].channel disabled false
attr mutable ""
par CampusNetwork.branch1Switch.ethg$o[14].channel delay 5e-08s
attr mutable ""
attr unit s
par CampusNetwork.branch1Switch.ethg$o[14].channel datarate 1e+08bps
attr mutable ""
attr unit bps
par CampusNetwork.branch1Switch.ethg$o[14].channel ber 0
attr mutable ""
par CampusNetwork.branch1Switch.ethg$o[14].channel per 0
attr mutable ""
par CampusNetwork.branch1Switch.ethg$o[14].channel enabledLineStyle "\"solid\""
par CampusNetwork.branch1Switch.ethg$o[14].channel disabledLineStyle "\"dashed\""
par CampusNetwork.branch1Switch.ethg$o[14].channel disabledIcon "\"status/cross\""
par CampusNetwork.branch1Switch.ethg$o[14].channel length 10m
attr unit m
par CampusNetwork.branch1Host[14].ethg$o[0].channel typename "\"inet.node.ethernet.Eth100M\""
par CampusNetwork.branch1Host[14].ethg$o[0].channel disabled false
attr mutable ""
par CampusNetwork.branch1Host[14].ethg$o[0].channel delay 5e-08s
attr mutable ""
attr unit s
par CampusNetwork.branch1Host[14].ethg$o[0].channel datarate 1e+08bps
attr mutable ""
attr unit bps
par CampusNetwork.branch1Host[14].ethg$o[0].channel ber 0
attr mutable ""
par CampusNetwork.branch1Host[14].ethg$o[0].channel per 0
attr mutable ""
par CampusNetwork.branch1Host[14].ethg$o[0].channel enabledLineStyle "\"solid\""
par CampusNetwork.branch1Host[14].ethg$o[0].channel disabledLineStyle "\"dashed\""
par CampusNetwork.branch1Host[14].ethg$o[0].channel disabledIcon "\"status/cross\""
par CampusNetwork.branch1Host[14].ethg$o[0].channel length 10m
attr unit m
par CampusNetwork.branch1Switch.ethg$o[15].channel typename "\"inet.node.ethernet.Eth100M\""
par CampusNetwork.branch1Switch.ethg$o[15].channel disabled false
attr mutable ""
par CampusNetwork.branch1Switch.ethg$o[15].channel delay 5e-08s
attr mutable ""
attr unit s
par CampusNetwork.branch1Switch.ethg$o[15].channel datarate 1e+08bps
attr mutable ""
attr unit bps
par CampusNetwork.branch1Switch.ethg$o[15].channel ber 0
attr mutable ""
par CampusNetwork.branch1Switch.ethg$o[15].channel per 0
attr mutable ""
par CampusNetwork.branch1Switch.ethg$o[15].channel enabledLineStyle "\"solid\""
par CampusNetwork.branch1Switch.ethg$o[15].channel disabledLineStyle "\"dashed\""
par CampusNetwork.branch1Switch.ethg$o[15].channel disabledIcon "\"status/cross\""
par CampusNetwork.branch1Switch.ethg$o[15].channel length 10m
attr unit m
par CampusNetwork.branch1Host[15].ethg$o[0].channel typename "\"inet.node.ethernet.Eth100M\""
par CampusNetwork.branch1Host[15].ethg$o[0].channel disabled false
attr mutable ""
par CampusNetwork.branch1Host[15].ethg$o[0].channel delay 5e-08s
attr mutable ""
attr unit s
par CampusNetwork.branch1Host[15].ethg$o[0].channel datarate 1e+08bps
attr mutable ""
attr unit bps
par CampusNetwork.branch1Host[15].ethg$o[0].channel ber 0
attr mutable ""
par CampusNetwork.branch1Host[15].ethg$o[0].channel per 0
attr mutable ""
par CampusNetwork.branch1Host[15].ethg$o[0].channel enabledLineStyle "\"solid\""
par CampusNetwork.branch1Host[15].ethg$o[0].channel disabledLineStyle "\"dashed\""
par CampusNetwork.branch1Host[15].ethg$o[0].channel disabledIcon "\"status/cross\""
par CampusNetwork.branch1Host[15].ethg$o[0].channel length 10m
attr unit m
par CampusNetwork.branch1Switch.ethg$o[16].channel typename "\"inet.node.ethernet.Eth100M\""
par CampusNetwork.branch1Switch.ethg$o[16].channel disabled false
attr mutable ""
par CampusNetwork.branch1Switch.ethg$o[16].channel delay 5e-08s
attr mutable ""
attr unit s
par CampusNetwork.branch1Switch.ethg$o[16].channel datarate 1e+08bps
attr mutable ""
attr unit bps
par CampusNetwork.branch1Switch.ethg$o[16].channel ber 0
attr mutable ""
par CampusNetwork.branch1Switch.ethg$o[16].channel per 0
attr mutable ""
par CampusNetwork.branch1Switch.ethg$o[16].channel enabledLineStyle "\"solid\""
par CampusNetwork.branch1Switch.ethg$o[16].channel disabledLineStyle "\"dashed\""
par CampusNetwork.branch1Switch.ethg$o[16].channel disabledIcon "\"status/cross\""
par CampusNetwork.branch1Switch.ethg$o[16].channel length 10m
attr unit m
par CampusNetwork.branch1Host[16].ethg$o[0].channel typename "\"inet.node.ethernet.Eth100M\""
par CampusNetwork.branch1Host[16].ethg$o[0].channel disabled false
attr mutable ""
par CampusNetwork.branch1Host[16].ethg$o[0].channel delay 5e-08s
attr mutable ""
attr unit s
par CampusNetwork.branch1Host[16].ethg$o[0].channel datarate 1e+08bps
attr mutable ""
attr unit bps
par CampusNetwork.branch1Host[16].ethg$o[0].channel ber 0
attr mutable ""
par CampusNetwork.branch1Host[16].ethg$o[0].channel per 0
attr mutable ""
par CampusNetwork.branch1Host[16].ethg$o[0].channel enabledLineStyle "\"solid\""
par CampusNetwork.branch1Host[16].ethg$o[0].channel disabledLineStyle "\"dashed\""
par CampusNetwork.branch1Host[16].ethg$o[0].channel disabledIcon "\"status/cross\""
par CampusNetwork.branch1Host[16].ethg$o[0].channel length 10m
attr unit m
par CampusNetwork.branch1Switch.ethg$o[17].channel typename "\"inet.node.ethernet.Eth100M\""
par CampusNetwork.branch1Switch.ethg$o[17].channel disabled false
attr mutable ""
par CampusNetwork.branch1Switch.ethg$o[17].channel delay 5e-08s
attr mutable ""
attr unit s
par CampusNetwork.branch1Switch.ethg$o[17].channel datarate 1e+08bps
attr mutable ""
attr unit bps
par CampusNetwork.branch1Switch.ethg$o[17].channel ber 0
attr mutable ""
par CampusNetwork.branch1Switch.ethg$o[17].channel per 0
attr mutable ""
par CampusNetwork.branch1Switch.ethg$o[17].channel enabledLineStyle "\"solid\""
par CampusNetwork.branch1Switch.ethg$o[17].channel disabledLineStyle "\"dashed\""
par CampusNetwork.branch1Switch.ethg$o[17].channel disabledIcon "\"status/cross\""
par CampusNetwork.branch1Switch.ethg$o[17].channel length 10m
attr unit m
par CampusNetwork.branch1Host[17].ethg$o[0].channel typename "\"inet.node.ethernet.Eth100M\""
par CampusNetwork.branch1Host[17].ethg$o[0].channel disabled false
attr mutable ""
par CampusNetwork.branch1Host[17].ethg$o[0].channel delay 5e-08s
attr mutable ""
attr unit s
par CampusNetwork.branch1Host[17].ethg$o[0].channel datarate 1e+08bps
attr mutable ""
attr unit bps
par CampusNetwork.branch1Host[17].ethg$o[0].channel ber 0
attr mutable ""
par CampusNetwork.branch1Host[17].ethg$o[0].channel per 0
attr mutable ""
par CampusNetwork.branch1Host[17].ethg$o[0].channel enabledLineStyle "\"solid\""
par CampusNetwork.branch1Host[17].ethg$o[0].channel disabledLineStyle "\"dashed\""
par CampusNetwork.branch1Host[17].ethg$o[0].channel disabledIcon "\"status/cross\""
par CampusNetwork.branch1Host[17].ethg$o[0].channel length 10m
attr unit m
par CampusNetwork.branch1Switch.ethg$o[18].channel typename "\"inet.node.ethernet.Eth100M\""
par CampusNetwork.branch1Switch.ethg$o[18].channel disabled false
attr mutable ""
par CampusNetwork.branch1Switch.ethg$o[18].channel delay 5e-08s
attr mutable ""
attr unit s
par CampusNetwork.branch1Switch.ethg$o[18].channel datarate 1e+08bps
attr mutable ""
attr unit bps
par CampusNetwork.branch1Switch.ethg$o[18].channel ber 0
attr mutable ""
par CampusNetwork.branch1Switch.ethg$o[18].channel per 0
attr mutable ""
par CampusNetwork.branch1Switch.ethg$o[18].channel enabledLineStyle "\"solid\""
par CampusNetwork.branch1Switch.ethg$o[18].channel disabledLineStyle "\"dashed\""
par CampusNetwork.branch1Switch.ethg$o[18].channel disabledIcon "\"status/cross\""
par CampusNetwork.branch1Switch.ethg$o[18].channel length 10m
attr unit m
par CampusNetwork.branch1Host[18].ethg$o[0].channel typename "\"inet.node.ethernet.Eth100M\""
par CampusNetwork.branch1Host[18].ethg$o[0].channel disabled false
attr mutable ""
par CampusNetwork.branch1Host[18].ethg$o[0].channel delay 5e-08s
attr mutable ""
attr unit s
par CampusNetwork.branch1Host[18].ethg$o[0].channel datarate 1e+08bps
attr mutable ""
attr unit bps
par CampusNetwork.branch1Host[18].ethg$o[0].channel ber 0
attr mutable ""
par CampusNetwork.branch1Host[18].ethg$o[0].channel per 0
attr mutable ""
par CampusNetwork.branch1Host[18].ethg$o[0].channel enabledLineStyle "\"solid\""
par CampusNetwork.branch1Host[18].ethg$o[0].channel disabledLineStyle "\"dashed\""
par CampusNetwork.branch1Host[18].ethg$o[0].channel disabledIcon "\"status/cross\""
par CampusNetwork.branch1Host[18].ethg$o[0].channel length 10m
attr unit m
par CampusNetwork.branch1Switch.ethg$o[19].channel typename "\"inet.node.ethernet.Eth100M\""
par CampusNetwork.branch1Switch.ethg$o[19].channel disabled false
attr mutable ""
par CampusNetwork.branch1Switch.ethg$o[19].channel delay 5e-08s
attr mutable ""
attr unit s
par CampusNetwork.branch1Switch.ethg$o[19].channel datarate 1e+08bps
attr mutable ""
attr unit bps
par CampusNetwork.branch1Switch.ethg$o[19].channel ber 0
attr mutable ""
par CampusNetwork.branch1Switch.ethg$o[19].channel per 0
attr mutable ""
par CampusNetwork.branch1Switch.ethg$o[19].channel enabledLineStyle "\"solid\""
par CampusNetwork.branch1Switch.ethg$o[19].channel disabledLineStyle "\"dashed\""
par CampusNetwork.branch1Switch.ethg$o[19].channel disabledIcon "\"status/cross\""
par CampusNetwork.branch1Switch.ethg$o[19].channel length 10m
attr unit m
par CampusNetwork.branch1Host[19].ethg$o[0].channel typename "\"inet.node.ethernet.Eth100M\""
par CampusNetwork.branch1Host[19].ethg$o[0].channel disabled false
attr mutable ""
par CampusNetwork.branch1Host[19].ethg$o[0].channel delay 5e-08s
attr mutable ""
attr unit s
par CampusNetwork.branch1Host[19].ethg$o[0].channel datarate 1e+08bps
attr mutable ""
attr unit bps
par CampusNetwork.branch1Host[19].ethg$o[0].channel ber 0
attr mutable ""
par CampusNetwork.branch1Host[19].ethg$o[0].channel per 0
attr mutable ""
par CampusNetwork.branch1Host[19].ethg$o[0].channel enabledLineStyle "\"solid\""
par CampusNetwork.branch1Host[19].ethg$o[0].channel disabledLineStyle "\"dashed\""
par CampusNetwork.branch1Host[19].ethg$o[0].channel disabledIcon "\"status/cross\""
par CampusNetwork.branch1Host[19].ethg$o[0].channel length 10m
attr unit m
par CampusNetwork.branch1Switch.ethg$o[20].channel typename "\"inet.node.ethernet.Eth100M\""
par CampusNetwork.branch1Switch.ethg$o[20].channel disabled false
attr mutable ""
par CampusNetwork.branch1Switch.ethg$o[20].channel delay 5e-08s
attr mutable ""
attr unit s
par CampusNetwork.branch1Switch.ethg$o[20].channel datarate 1e+08bps
attr mutable ""
attr unit bps
par CampusNetwork.branch1Switch.ethg$o[20].channel ber 0
attr mutable ""
par CampusNetwork.branch1Switch.ethg$o[20].channel per 0
attr mutable ""
par CampusNetwork.branch1Switch.ethg$o[20].channel enabledLineStyle "\"solid\""
par CampusNetwork.branch1Switch.ethg$o[20].channel disabledLineStyle "\"dashed\""
par CampusNetwork.branch1Switch.ethg$o[20].channel disabledIcon "\"status/cross\""
par CampusNetwork.branch1Switch.ethg$o[20].channel length 10m
attr unit m
par CampusNetwork.branch1Host[20].ethg$o[0].channel typename "\"inet.node.ethernet.Eth100M\""
par CampusNetwork.branch1Host[20].ethg$o[0].channel disabled false
attr mutable ""
par CampusNetwork.branch1Host[20].ethg$o[0].channel delay 5e-08s
attr mutable ""
attr unit s
par CampusNetwork.branch1Host[20].ethg$o[0].channel datarate 1e+08bps
attr mutable ""
attr unit bps
par CampusNetwork.branch1Host[20].ethg$o[0].channel ber 0
attr mutable ""
par CampusNetwork.branch1Host[20].ethg$o[0].channel per 0
attr mutable ""
par CampusNetwork.branch1Host[20].ethg$o[0].channel enabledLineStyle "\"solid\""
par CampusNetwork.branch1Host[20].ethg$o[0].channel disabledLineStyle "\"dashed\""
par CampusNetwork.branch1Host[20].ethg$o[0].channel disabledIcon "\"status/cross\""
par CampusNetwork.branch1Host[20].ethg$o[0].channel length 10m
attr unit m
par CampusNetwork.branch1Switch.ethg$o[21].channel typename "\"inet.node.ethernet.Eth100M\""
par CampusNetwork.branch1Switch.ethg$o[21].channel disabled false
attr mutable ""
par CampusNetwork.branch1Switch.ethg$o[21].channel delay 5e-08s
attr mutable ""
attr unit s
par CampusNetwork.branch1Switch.ethg$o[21].channel datarate 1e+08bps
attr mutable ""
attr unit bps
par CampusNetwork.branch1Switch.ethg$o[21].channel ber 0
attr mutable ""
par CampusNetwork.branch1Switch.ethg$o[21].channel per 0
attr mutable ""
par CampusNetwork.branch1Switch.ethg$o[21].channel enabledLineStyle "\"solid\""
par CampusNetwork.branch1Switch.ethg$o[21].channel disabledLineStyle "\"dashed\""
par CampusNetwork.branch1Switch.ethg$o[21].channel disabledIcon "\"status/cross\""
par CampusNetwork.branch1Switch.ethg$o[21].channel length 10m
attr unit m
par CampusNetwork.branch1Host[21].ethg$o[0].channel typename "\"inet.node.ethernet.Eth100M\""
par CampusNetwork.branch1Host[21].ethg$o[0].channel disabled false
attr mutable ""
par CampusNetwork.branch1Host[21].ethg$o[0].channel delay 5e-08s
attr mutable ""
attr unit s
par CampusNetwork.branch1Host[21].ethg$o[0].channel datarate 1e+08bps
attr mutable ""
attr unit bps
par CampusNetwork.branch1Host[21].ethg$o[0].channel ber 0
attr mutable ""
par CampusNetwork.branch1Host[21].ethg$o[0].channel per 0
attr mutable ""
par CampusNetwork.branch1Host[21].ethg$o[0].channel enabledLineStyle "\"solid\""
par CampusNetwork.branch1Host[21].ethg$o[0].channel disabledLineStyle "\"dashed\""
par CampusNetwork.branch1Host[21].ethg$o[0].channel disabledIcon "\"status/cross\""
par CampusNetwork.branch1Host[21].ethg$o[0].channel length 10m
attr unit m
par CampusNetwork.branch1Switch.ethg$o[22].channel typename "\"inet.node.ethernet.Eth100M\""
par CampusNetwork.branch1Switch.ethg$o[22].channel disabled false
attr mutable ""
par CampusNetwork.branch1Switch.ethg$o[22].channel delay 5e-08s
attr mutable ""
attr unit s
par CampusNetwork.branch1Switch.ethg$o[22].channel datarate 1e+08bps
attr mutable ""
attr unit bps
par CampusNetwork.branch1Switch.ethg$o[22].channel ber 0
attr mutable ""
par CampusNetwork.branch1Switch.ethg$o[22].channel per 0
attr mutable ""
par CampusNetwork.branch1Switch.ethg$o[22].channel enabledLineStyle "\"solid\""
par CampusNetwork.branch1Switch.ethg$o[22].channel disabledLineStyle "\"dashed\""
par CampusNetwork.branch1Switch.ethg$o[22].channel disabledIcon "\"status/cross\""
par CampusNetwork.branch1Switch.ethg$o[22].channel length 10m
attr unit m
par CampusNetwork.branch1Host[22].ethg$o[0].channel typename "\"inet.node.ethernet.Eth100M\""
par CampusNetwork.branch1Host[22].ethg$o[0].channel disabled false
attr mutable ""
par CampusNetwork.branch1Host[22].ethg$o[0].channel delay 5e-08s
attr mutable ""
attr unit s
par CampusNetwork.branch1Host[22].ethg$o[0].channel datarate 1e+08bps
attr mutable ""
attr unit bps
par CampusNetwork.branch1Host[22].ethg$o[0].channel ber 0
attr mutable ""
par CampusNetwork.branch1Host[22].ethg$o[0].channel per 0
attr mutable ""
par CampusNetwork.branch1Host[22].ethg$o[0].channel enabledLineStyle "\"solid\""
par CampusNetwork.branch1Host[22].ethg$o[0].channel disabledLineStyle "\"dashed\""
par CampusNetwork.branch1Host[22].ethg$o[0].channel disabledIcon "\"status/cross\""
par CampusNetwork.branch1Host[22].ethg$o[0].channel length 10m
attr unit m
par CampusNetwork.branch1Switch.ethg$o[23].channel typename "\"inet.node.ethernet.Eth100M\""
par CampusNetwork.branch1Switch.ethg$o[23].channel disabled false
attr mutable ""
par CampusNetwork.branch1Switch.ethg$o[23].channel delay 5e-08s
attr mutable ""
attr unit s
par CampusNetwork.branch1Switch.ethg$o[23].channel datarate 1e+08bps
attr mutable ""
attr unit bps
par CampusNetwork.branch1Switch.ethg$o[23].channel ber 0
attr mutable ""
par CampusNetwork.branch1Switch.ethg$o[23].channel per 0
attr mutable ""
par CampusNetwork.branch1Switch.ethg$o[23].channel enabledLineStyle "\"solid\""
par CampusNetwork.branch1Switch.ethg$o[23].channel disabledLineStyle "\"dashed\""
par CampusNetwork.branch1Switch.ethg$o[23].channel disabledIcon "\"status/cross\""
par CampusNetwork.branch1Switch.ethg$o[23].channel length 10m
attr unit m
par CampusNetwork.branch1Host[23].ethg$o[0].channel typename "\"inet.node.ethernet.Eth100M\""
par CampusNetwork.branch1Host[23].ethg$o[0].channel disabled false
attr mutable ""
par CampusNetwork.branch1Host[23].ethg$o[0].channel delay 5e-08s
attr mutable ""
attr unit s
par CampusNetwork.branch1Host[23].ethg$o[0].channel datarate 1e+08bps
attr mutable ""
attr unit bps
par CampusNetwork.branch1Host[23].ethg$o[0].channel ber 0
attr mutable ""
par CampusNetwork.branch1Host[23].ethg$o[0].channel per 0
attr mutable ""
par CampusNetwork.branch1Host[23].ethg$o[0].channel enabledLineStyle "\"solid\""
par CampusNetwork.branch1Host[23].ethg$o[0].channel disabledLineStyle "\"dashed\""
par CampusNetwork.branch1Host[23].ethg$o[0].channel disabledIcon "\"status/cross\""
par CampusNetwork.branch1Host[23].ethg$o[0].channel length 10m
attr unit m
par CampusNetwork.branch1Switch.ethg$o[24].channel typename "\"inet.node.ethernet.Eth100M\""
par CampusNetwork.branch1Switch.ethg$o[24].channel disabled false
attr mutable ""
par CampusNetwork.branch1Switch.ethg$o[24].channel delay 5e-08s
attr mutable ""
attr unit s
par CampusNetwork.branch1Switch.ethg$o[24].channel datarate 1e+08bps
attr mutable ""
attr unit bps
par CampusNetwork.branch1Switch.ethg$o[24].channel ber 0
attr mutable ""
par CampusNetwork.branch1Switch.ethg$o[24].channel per 0
attr mutable ""
par CampusNetwork.branch1Switch.ethg$o[24].channel enabledLineStyle "\"solid\""
par CampusNetwork.branch1Switch.ethg$o[24].channel disabledLineStyle "\"dashed\""
par CampusNetwork.branch1Switch.ethg$o[24].channel disabledIcon "\"status/cross\""
par CampusNetwork.branch1Switch.ethg$o[24].channel length 10m
attr unit m
par CampusNetwork.branch1Host[24].ethg$o[0].channel typename "\"inet.node.ethernet.Eth100M\""
par CampusNetwork.branch1Host[24].ethg$o[0].channel disabled false
attr mutable ""
par CampusNetwork.branch1Host[24].ethg$o[0].channel delay 5e-08s
attr mutable ""
attr unit s
par CampusNetwork.branch1Host[24].ethg$o[0].channel datarate 1e+08bps
attr mutable ""
attr unit bps
par CampusNetwork.branch1Host[24].ethg$o[0].channel ber 0
attr mutable ""
par CampusNetwork.branch1Host[24].ethg$o[0].channel per 0
attr mutable ""
par CampusNetwork.branch1Host[24].ethg$o[0].channel enabledLineStyle "\"solid\""
par CampusNetwork.branch1Host[24].ethg$o[0].channel disabledLineStyle "\"dashed\""
par CampusNetwork.branch1Host[24].ethg$o[0].channel disabledIcon "\"status/cross\""
par CampusNetwork.branch1Host[24].ethg$o[0].channel length 10m
attr unit m
par CampusNetwork.branch1Switch.ethg$o[25].channel typename "\"inet.node.ethernet.Eth100M\""
par CampusNetwork.branch1Switch.ethg$o[25].channel disabled false
attr mutable ""
par CampusNetwork.branch1Switch.ethg$o[25].channel delay 5e-08s
attr mutable ""
attr unit s
par CampusNetwork.branch1Switch.ethg$o[25].channel datarate 1e+08bps
attr mutable ""
attr unit bps
par CampusNetwork.branch1Switch.ethg$o[25].channel ber 0
attr mutable ""
par CampusNetwork.branch1Switch.ethg$o[25].channel per 0
attr mutable ""
par CampusNetwork.branch1Switch.ethg$o[25].channel enabledLineStyle "\"solid\""
par CampusNetwork.branch1Switch.ethg$o[25].channel disabledLineStyle "\"dashed\""
par CampusNetwork.branch1Switch.ethg$o[25].channel disabledIcon "\"status/cross\""
par CampusNetwork.branch1Switch.ethg$o[25].channel length 10m
attr unit m
par CampusNetwork.branch2Router.ethg$o[0].channel typename "\"inet.node.ethernet.Eth1G\""
par CampusNetwork.branch2Router.ethg$o[0].channel disabled false
attr mutable ""
par CampusNetwork.branch2Router.ethg$o[0].channel delay 5e-08s
attr mutable ""
attr unit s
par CampusNetwork.branch2Router.ethg$o[0].channel datarate 1e+09bps
attr mutable ""
attr unit bps
par CampusNetwork.branch2Router.ethg$o[0].channel ber 0
attr mutable ""
par CampusNetwork.branch2Router.ethg$o[0].channel per 0
attr mutable ""
par CampusNetwork.branch2Router.ethg$o[0].channel enabledLineStyle "\"solid\""
par CampusNetwork.branch2Router.ethg$o[0].channel disabledLineStyle "\"dashed\""
par CampusNetwork.branch2Router.ethg$o[0].channel disabledIcon "\"status/cross\""
par CampusNetwork.branch2Router.ethg$o[0].channel length 10m
attr unit m
par CampusNetwork.internet.ethg$o[3].channel typename "\"inet.node.ethernet.Eth1G\""
par CampusNetwork.internet.ethg$o[3].channel disabled false
attr mutable ""
par CampusNetwork.internet.ethg$o[3].channel delay 5e-08s
attr mutable ""
attr unit s
par CampusNetwork.internet.ethg$o[3].channel datarate 1e+09bps
attr mutable ""
attr unit bps
par CampusNetwork.internet.ethg$o[3].channel ber 0
attr mutable ""
par CampusNetwork.internet.ethg$o[3].channel per 0
attr mutable ""
par CampusNetwork.internet.ethg$o[3].channel enabledLineStyle "\"solid\""
par CampusNetwork.internet.ethg$o[3].channel disabledLineStyle "\"dashed\""
par CampusNetwork.internet.ethg$o[3].channel disabledIcon "\"status/cross\""
par CampusNetwork.internet.ethg$o[3].channel length 10m
attr unit m
par CampusNetwork.branch2Switch.ethg$o[0].channel typename "\"inet.node.ethernet.Eth100M\""
par CampusNetwork.branch2Switch.ethg$o[0].channel disabled false
attr mutable ""
par CampusNetwork.branch2Switch.ethg$o[0].channel delay 5e-08s
attr mutable ""
attr unit s
par CampusNetwork.branch2Switch.ethg$o[0].channel datarate 1e+08bps
attr mutable ""
attr unit bps
par CampusNetwork.branch2Switch.ethg$o[0].channel ber 0
attr mutable ""
par CampusNetwork.branch2Switch.ethg$o[0].channel per 0
attr mutable ""
par CampusNetwork.branch2Switch.ethg$o[0].channel enabledLineStyle "\"solid\""
par CampusNetwork.branch2Switch.ethg$o[0].channel disabledLineStyle "\"dashed\""
par CampusNetwork.branch2Switch.ethg$o[0].channel disabledIcon "\"status/cross\""
par CampusNetwork.branch2Switch.ethg$o[0].channel length 10m
attr unit m
par CampusNetwork.branch2Router.ethg$o[1].channel typename "\"inet.node.ethernet.Eth100M\""
par CampusNetwork.branch2Router.ethg$o[1].channel disabled false
attr mutable ""
par CampusNetwork.branch2Router.ethg$o[1].channel delay 5e-08s
attr mutable ""
attr unit s
par CampusNetwork.branch2Router.ethg$o[1].channel datarate 1e+08bps
attr mutable ""
attr unit bps
par CampusNetwork.branch2Router.ethg$o[1].channel ber 0
attr mutable ""
par CampusNetwork.branch2Router.ethg$o[1].channel per 0
attr mutable ""
par CampusNetwork.branch2Router.ethg$o[1].channel enabledLineStyle "\"solid\""
par CampusNetwork.branch2Router.ethg$o[1].channel disabledLineStyle "\"dashed\""
par CampusNetwork.branch2Router.ethg$o[1].channel disabledIcon "\"status/cross\""
par CampusNetwork.branch2Router.ethg$o[1].channel length 10m
attr unit m
par CampusNetwork.branch2Host[0].ethg$o[0].channel typename "\"inet.node.ethernet.Eth100M\""
par CampusNetwork.branch2Host[0].ethg$o[0].channel disabled false
attr mutable ""
par CampusNetwork.branch2Host[0].ethg$o[0].channel delay 5e-08s
attr mutable ""
attr unit s
par CampusNetwork.branch2Host[0].ethg$o[0].channel datarate 1e+08bps
attr mutable ""
attr unit bps
par CampusNetwork.branch2Host[0].ethg$o[0].channel ber 0
attr mutable ""
par CampusNetwork.branch2Host[0].ethg$o[0].channel per 0
attr mutable ""
par CampusNetwork.branch2Host[0].ethg$o[0].channel enabledLineStyle "\"solid\""
par CampusNetwork.branch2Host[0].ethg$o[0].channel disabledLineStyle "\"dashed\""
par CampusNetwork.branch2Host[0].ethg$o[0].channel disabledIcon "\"status/cross\""
par CampusNetwork.branch2Host[0].ethg$o[0].channel length 10m
attr unit m
par CampusNetwork.branch2Switch.ethg$o[1].channel typename "\"inet.node.ethernet.Eth100M\""
par CampusNetwork.branch2Switch.ethg$o[1].channel disabled false
attr mutable ""
par CampusNetwork.branch2Switch.ethg$o[1].channel delay 5e-08s
attr mutable ""
attr unit s
par CampusNetwork.branch2Switch.ethg$o[1].channel datarate 1e+08bps
attr mutable ""
attr unit bps
par CampusNetwork.branch2Switch.ethg$o[1].channel ber 0
attr mutable ""
par CampusNetwork.branch2Switch.ethg$o[1].channel per 0
attr mutable ""
par CampusNetwork.branch2Switch.ethg$o[1].channel enabledLineStyle "\"solid\""
par CampusNetwork.branch2Switch.ethg$o[1].channel disabledLineStyle "\"dashed\""
par CampusNetwork.branch2Switch.ethg$o[1].channel disabledIcon "\"status/cross\""
par CampusNetwork.branch2Switch.ethg$o[1].channel length 10m
attr unit m
par CampusNetwork.branch2Host[1].ethg$o[0].channel typename "\"inet.node.ethernet.Eth100M\""
par CampusNetwork.branch2Host[1].ethg$o[0].channel disabled false
attr mutable ""
par CampusNetwork.branch2Host[1].ethg$o[0].channel delay 5e-08s
attr mutable ""
attr unit s
par CampusNetwork.branch2Host[1].ethg$o[0].channel datarate 1e+08bps
attr mutable ""
attr unit bps
par CampusNetwork.branch2Host[1].ethg$o[0].channel ber 0
attr mutable ""
par CampusNetwork.branch2Host[1].ethg$o[0].channel per 0
attr mutable ""
par CampusNetwork.branch2Host[1].ethg$o[0].channel enabledLineStyle "\"solid\""
par CampusNetwork.branch2Host[1].ethg$o[0].channel disabledLineStyle "\"dashed\""
par CampusNetwork.branch2Host[1].ethg$o[0].channel disabledIcon "\"status/cross\""
par CampusNetwork.branch2Host[1].ethg$o[0].channel length 10m
attr unit m
par CampusNetwork.branch2Switch.ethg$o[2].channel typename "\"inet.node.ethernet.Eth100M\""
par CampusNetwork.branch2Switch.ethg$o[2].channel disabled false
attr mutable ""
par CampusNetwork.branch2Switch.ethg$o[2].channel delay 5e-08s
attr mutable ""
attr unit s
par CampusNetwork.branch2Switch.ethg$o[2].channel datarate 1e+08bps
attr mutable ""
attr unit bps
par CampusNetwork.branch2Switch.ethg$o[2].channel ber 0
attr mutable ""
par CampusNetwork.branch2Switch.ethg$o[2].channel per 0
attr mutable ""
par CampusNetwork.branch2Switch.ethg$o[2].channel enabledLineStyle "\"solid\""
par CampusNetwork.branch2Switch.ethg$o[2].channel disabledLineStyle "\"dashed\""
par CampusNetwork.branch2Switch.ethg$o[2].channel disabledIcon "\"status/cross\""
par CampusNetwork.branch2Switch.ethg$o[2].channel length 10m
attr unit m
par CampusNetwork.branch2Host[2].ethg$o[0].channel typename "\"inet.node.ethernet.Eth100M\""
par CampusNetwork.branch2Host[2].ethg$o[0].channel disabled false
attr mutable ""
par CampusNetwork.branch2Host[2].ethg$o[0].channel delay 5e-08s
attr mutable ""
attr unit s
par CampusNetwork.branch2Host[2].ethg$o[0].channel datarate 1e+08bps
attr mutable ""
attr unit bps
par CampusNetwork.branch2Host[2].ethg$o[0].channel ber 0
attr mutable ""
par CampusNetwork.branch2Host[2].ethg$o[0].channel per 0
attr mutable ""
par CampusNetwork.branch2Host[2].ethg$o[0].channel enabledLineStyle "\"solid\""
par CampusNetwork.branch2Host[2].ethg$o[0].channel disabledLineStyle "\"dashed\""
par CampusNetwork.branch2Host[2].ethg$o[0].channel disabledIcon "\"status/cross\""
par CampusNetwork.branch2Host[2].ethg$o[0].channel length 10m
attr unit m
par CampusNetwork.branch2Switch.ethg$o[3].channel typename "\"inet.node.ethernet.Eth100M\""
par CampusNetwork.branch2Switch.ethg$o[3].channel disabled false
attr mutable ""
par CampusNetwork.branch2Switch.ethg$o[3].channel delay 5e-08s
attr mutable ""
attr unit s
par CampusNetwork.branch2Switch.ethg$o[3].channel datarate 1e+08bps
attr mutable ""
attr unit bps
par CampusNetwork.branch2Switch.ethg$o[3].channel ber 0
attr mutable ""
par CampusNetwork.branch2Switch.ethg$o[3].channel per 0
attr mutable ""
par CampusNetwork.branch2Switch.ethg$o[3].channel enabledLineStyle "\"solid\""
par CampusNetwork.branch2Switch.ethg$o[3].channel disabledLineStyle "\"dashed\""
par CampusNetwork.branch2Switch.ethg$o[3].channel disabledIcon "\"status/cross\""
par CampusNetwork.branch2Switch.ethg$o[3].channel length 10m
attr unit m
par CampusNetwork.branch2Host[3].ethg$o[0].channel typename "\"inet.node.ethernet.Eth100M\""
par CampusNetwork.branch2Host[3].ethg$o[0].channel disabled false
attr mutable ""
par CampusNetwork.branch2Host[3].ethg$o[0].channel delay 5e-08s
attr mutable ""
attr unit s
par CampusNetwork.branch2Host[3].ethg$o[0].channel datarate 1e+08bps
attr mutable ""
attr unit bps
par CampusNetwork.branch2Host[3].ethg$o[0].channel ber 0
attr mutable ""
par CampusNetwork.branch2Host[3].ethg$o[0].channel per 0
attr mutable ""
par CampusNetwork.branch2Host[3].ethg$o[0].channel enabledLineStyle "\"solid\""
par CampusNetwork.branch2Host[3].ethg$o[0].channel disabledLineStyle "\"dashed\""
par CampusNetwork.branch2Host[3].ethg$o[0].channel disabledIcon "\"status/cross\""
par CampusNetwork.branch2Host[3].ethg$o[0].channel length 10m
attr unit m
par CampusNetwork.branch2Switch.ethg$o[4].channel typename "\"inet.node.ethernet.Eth100M\""
par CampusNetwork.branch2Switch.ethg$o[4].channel disabled false
attr mutable ""
par CampusNetwork.branch2Switch.ethg$o[4].channel delay 5e-08s
attr mutable ""
attr unit s
par CampusNetwork.branch2Switch.ethg$o[4].channel datarate 1e+08bps
attr mutable ""
attr unit bps
par CampusNetwork.branch2Switch.ethg$o[4].channel ber 0
attr mutable ""
par CampusNetwork.branch2Switch.ethg$o[4].channel per 0
attr mutable ""
par CampusNetwork.branch2Switch.ethg$o[4].channel enabledLineStyle "\"solid\""
par CampusNetwork.branch2Switch.ethg$o[4].channel disabledLineStyle "\"dashed\""
par CampusNetwork.branch2Switch.ethg$o[4].channel disabledIcon "\"status/cross\""
par CampusNetwork.branch2Switch.ethg$o[4].channel length 10m
attr unit m
par CampusNetwork.branch2Host[4].ethg$o[0].channel typename "\"inet.node.ethernet.Eth100M\""
par CampusNetwork.branch2Host[4].ethg$o[0].channel disabled false
attr mutable ""
par CampusNetwork.branch2Host[4].ethg$o[0].channel delay 5e-08s
attr mutable ""
attr unit s
par CampusNetwork.branch2Host[4].ethg$o[0].channel datarate 1e+08bps
attr mutable ""
attr unit bps
par CampusNetwork.branch2Host[4].ethg$o[0].channel ber 0
attr mutable ""
par CampusNetwork.branch2Host[4].ethg$o[0].channel per 0
attr mutable ""
par CampusNetwork.branch2Host[4].ethg$o[0].channel enabledLineStyle "\"solid\""
par CampusNetwork.branch2Host[4].ethg$o[0].channel disabledLineStyle "\"dashed\""
par CampusNetwork.branch2Host[4].ethg$o[0].channel disabledIcon "\"status/cross\""
par CampusNetwork.branch2Host[4].ethg$o[0].channel length 10m
attr unit m
par CampusNetwork.branch2Switch.ethg$o[5].channel typename "\"inet.node.ethernet.Eth100M\""
par CampusNetwork.branch2Switch.ethg$o[5].channel disabled false
attr mutable ""
par CampusNetwork.branch2Switch.ethg$o[5].channel delay 5e-08s
attr mutable ""
attr unit s
par CampusNetwork.branch2Switch.ethg$o[5].channel datarate 1e+08bps
attr mutable ""
attr unit bps
par CampusNetwork.branch2Switch.ethg$o[5].channel ber 0
attr mutable ""
par CampusNetwork.branch2Switch.ethg$o[5].channel per 0
attr mutable ""
par CampusNetwork.branch2Switch.ethg$o[5].channel enabledLineStyle "\"solid\""
par CampusNetwork.branch2Switch.ethg$o[5].channel disabledLineStyle "\"dashed\""
par CampusNetwork.branch2Switch.ethg$o[5].channel disabledIcon "\"status/cross\""
par CampusNetwork.branch2Switch.ethg$o[5].channel length 10m
attr unit m
par CampusNetwork.branch2Host[5].ethg$o[0].channel typename "\"inet.node.ethernet.Eth100M\""
par CampusNetwork.branch2Host[5].ethg$o[0].channel disabled false
attr mutable ""
par CampusNetwork.branch2Host[5].ethg$o[0].channel delay 5e-08s
attr mutable ""
attr unit s
par CampusNetwork.branch2Host[5].ethg$o[0].channel datarate 1e+08bps
attr mutable ""
attr unit bps
par CampusNetwork.branch2Host[5].ethg$o[0].channel ber 0
attr mutable ""
par CampusNetwork.branch2Host[5].ethg$o[0].channel per 0
attr mutable ""
par CampusNetwork.branch2Host[5].ethg$o[0].channel enabledLineStyle "\"solid\""
par CampusNetwork.branch2Host[5].ethg$o[0].channel disabledLineStyle "\"dashed\""
par CampusNetwork.branch2Host[5].ethg$o[0].channel disabledIcon "\"status/cross\""
par CampusNetwork.branch2Host[5].ethg$o[0].channel length 10m
attr unit m
par CampusNetwork.branch2Switch.ethg$o[6].channel typename "\"inet.node.ethernet.Eth100M\""
par CampusNetwork.branch2Switch.ethg$o[6].channel disabled false
attr mutable ""
par CampusNetwork.branch2Switch.ethg$o[6].channel delay 5e-08s
attr mutable ""
attr unit s
par CampusNetwork.branch2Switch.ethg$o[6].channel datarate 1e+08bps
attr mutable ""
attr unit bps
par CampusNetwork.branch2Switch.ethg$o[6].channel ber 0
attr mutable ""
par CampusNetwork.branch2Switch.ethg$o[6].channel per 0
attr mutable ""
par CampusNetwork.branch2Switch.ethg$o[6].channel enabledLineStyle "\"solid\""
par CampusNetwork.branch2Switch.ethg$o[6].channel disabledLineStyle "\"dashed\""
par CampusNetwork.branch2Switch.ethg$o[6].channel disabledIcon "\"status/cross\""
par CampusNetwork.branch2Switch.ethg$o[6].channel length 10m
attr unit m
par CampusNetwork.branch2Host[6].ethg$o[0].channel typename "\"inet.node.ethernet.Eth100M\""
par CampusNetwork.branch2Host[6].ethg$o[0].channel disabled false
attr mutable ""
par CampusNetwork.branch2Host[6].ethg$o[0].channel delay 5e-08s
attr mutable ""
attr unit s
par CampusNetwork.branch2Host[6].ethg$o[0].channel datarate 1e+08bps
attr mutable ""
attr unit bps
par CampusNetwork.branch2Host[6].ethg$o[0].channel ber 0
attr mutable ""
par CampusNetwork.branch2Host[6].ethg$o[0].channel per 0
attr mutable ""
par CampusNetwork.branch2Host[6].ethg$o[0].channel enabledLineStyle "\"solid\""
par CampusNetwork.branch2Host[6].ethg$o[0].channel disabledLineStyle "\"dashed\""
par CampusNetwork.branch2Host[6].ethg$o[0].channel disabledIcon "\"status/cross\""
par CampusNetwork.branch2Host[6].ethg$o[0].channel length 10m
attr unit m
par CampusNetwork.branch2Switch.ethg$o[7].channel typename "\"inet.node.ethernet.Eth100M\""
par CampusNetwork.branch2Switch.ethg$o[7].channel disabled false
attr mutable ""
par CampusNetwork.branch2Switch.ethg$o[7].channel delay 5e-08s
attr mutable ""
attr unit s
par CampusNetwork.branch2Switch.ethg$o[7].channel datarate 1e+08bps
attr mutable ""
attr unit bps
par CampusNetwork.branch2Switch.ethg$o[7].channel ber 0
attr mutable ""
par CampusNetwork.branch2Switch.ethg$o[7].channel per 0
attr mutable ""
par CampusNetwork.branch2Switch.ethg$o[7].channel enabledLineStyle "\"solid\""
par CampusNetwork.branch2Switch.ethg$o[7].channel disabledLineStyle "\"dashed\""
par CampusNetwork.branch2Switch.ethg$o[7].channel disabledIcon "\"status/cross\""
par CampusNetwork.branch2Switch.ethg$o[7].channel length 10m
attr unit m
par CampusNetwork.branch2Host[7].ethg$o[0].channel typename "\"inet.node.ethernet.Eth100M\""
par CampusNetwork.branch2Host[7].ethg$o[0].channel disabled false
attr mutable ""
par CampusNetwork.branch2Host[7].ethg$o[0].channel delay 5e-08s
attr mutable ""
attr unit s
par CampusNetwork.branch2Host[7].ethg$o[0].channel datarate 1e+08bps
attr mutable ""
attr unit bps
par CampusNetwork.branch2Host[7].ethg$o[0].channel ber 0
attr mutable ""
par CampusNetwork.branch2Host[7].ethg$o[0].channel per 0
attr mutable ""
par CampusNetwork.branch2Host[7].ethg$o[0].channel enabledLineStyle "\"solid\""
par CampusNetwork.branch2Host[7].ethg$o[0].channel disabledLineStyle "\"dashed\""
par CampusNetwork.branch2Host[7].ethg$o[0].channel disabledIcon "\"status/cross\""
par CampusNetwork.branch2Host[7].ethg$o[0].channel length 10m
attr unit m
par CampusNetwork.branch2Switch.ethg$o[8].channel typename "\"inet.node.ethernet.Eth100M\""
par CampusNetwork.branch2Switch.ethg$o[8].channel disabled false
attr mutable ""
par CampusNetwork.branch2Switch.ethg$o[8].channel delay 5e-08s
attr mutable ""
attr unit s
par CampusNetwork.branch2Switch.ethg$o[8].channel datarate 1e+08bps
attr mutable ""
attr unit bps
par CampusNetwork.branch2Switch.ethg$o[8].channel ber 0
attr mutable ""
par CampusNetwork.branch2Switch.ethg$o[8].channel per 0
attr mutable ""
par CampusNetwork.branch2Switch.ethg$o[8].channel enabledLineStyle "\"solid\""
par CampusNetwork.branch2Switch.ethg$o[8].channel disabledLineStyle "\"dashed\""
par CampusNetwork.branch2Switch.ethg$o[8].channel disabledIcon "\"status/cross\""
par CampusNetwork.branch2Switch.ethg$o[8].channel length 10m
attr unit m
par CampusNetwork.branch2Host[8].ethg$o[0].channel typename "\"inet.node.ethernet.Eth100M\""
par CampusNetwork.branch2Host[8].ethg$o[0].channel disabled false
attr mutable ""
par CampusNetwork.branch2Host[8].ethg$o[0].channel delay 5e-08s
attr mutable ""
attr unit s
par CampusNetwork.branch2Host[8].ethg$o[0].channel datarate 1e+08bps
attr mutable ""
attr unit bps
par CampusNetwork.branch2Host[8].ethg$o[0].channel ber 0
attr mutable ""
par CampusNetwork.branch2Host[8].ethg$o[0].channel per 0
attr mutable ""
par CampusNetwork.branch2Host[8].ethg$o[0].channel enabledLineStyle "\"solid\""
par CampusNetwork.branch2Host[8].ethg$o[0].channel disabledLineStyle "\"dashed\""
par CampusNetwork.branch2Host[8].ethg$o[0].channel disabledIcon "\"status/cross\""
par CampusNetwork.branch2Host[8].ethg$o[0].channel length 10m
attr unit m
par CampusNetwork.branch2Switch.ethg$o[9].channel typename "\"inet.node.ethernet.Eth100M\""
par CampusNetwork.branch2Switch.ethg$o[9].channel disabled false
attr mutable ""
par CampusNetwork.branch2Switch.ethg$o[9].channel delay 5e-08s
attr mutable ""
attr unit s
par CampusNetwork.branch2Switch.ethg$o[9].channel datarate 1e+08bps
attr mutable ""
attr unit bps
par CampusNetwork.branch2Switch.ethg$o[9].channel ber 0
attr mutable ""
par CampusNetwork.branch2Switch.ethg$o[9].channel per 0
attr mutable ""
par CampusNetwork.branch2Switch.ethg$o[9].channel enabledLineStyle "\"solid\""
par CampusNetwork.branch2Switch.ethg$o[9].channel disabledLineStyle "\"dashed\""
par CampusNetwork.branch2Switch.ethg$o[9].channel disabledIcon "\"status/cross\""
par CampusNetwork.branch2Switch.ethg$o[9].channel length 10m
attr unit m
par CampusNetwork.branch2Host[9].ethg$o[0].channel typename "\"inet.node.ethernet.Eth100M\""
par CampusNetwork.branch2Host[9].ethg$o[0].channel disabled false
attr mutable ""
par CampusNetwork.branch2Host[9].ethg$o[0].channel delay 5e-08s
attr mutable ""
attr unit s
par CampusNetwork.branch2Host[9].ethg$o[0].channel datarate 1e+08bps
attr mutable ""
attr unit bps
par CampusNetwork.branch2Host[9].ethg$o[0].channel ber 0
attr mutable ""
par CampusNetwork.branch2Host[9].ethg$o[0].channel per 0
attr mutable ""
par CampusNetwork.branch2Host[9].ethg$o[0].channel enabledLineStyle "\"solid\""
par CampusNetwork.branch2Host[9].ethg$o[0].channel disabledLineStyle "\"dashed\""
par CampusNetwork.branch2Host[9].ethg$o[0].channel disabledIcon "\"status/cross\""
par CampusNetwork.branch2Host[9].ethg$o[0].channel length 10m
attr unit m
par CampusNetwork.branch2Switch.ethg$o[10].channel typename "\"inet.node.ethernet.Eth100M\""
par CampusNetwork.branch2Switch.ethg$o[10].channel disabled false
attr mutable ""
par CampusNetwork.branch2Switch.ethg$o[10].channel delay 5e-08s
attr mutable ""
attr unit s
par CampusNetwork.branch2Switch.ethg$o[10].channel datarate 1e+08bps
attr mutable ""
attr unit bps
par CampusNetwork.branch2Switch.ethg$o[10].channel ber 0
attr mutable ""
par CampusNetwork.branch2Switch.ethg$o[10].channel per 0
attr mutable ""
par CampusNetwork.branch2Switch.ethg$o[10].channel enabledLineStyle "\"solid\""
par CampusNetwork.branch2Switch.ethg$o[10].channel disabledLineStyle "\"dashed\""
par CampusNetwork.branch2Switch.ethg$o[10].channel disabledIcon "\"status/cross\""
par CampusNetwork.branch2Switch.ethg$o[10].channel length 10m
attr unit m
par CampusNetwork.branch2Host[10].ethg$o[0].channel typename "\"inet.node.ethernet.Eth100M\""
par CampusNetwork.branch2Host[10].ethg$o[0].channel disabled false
attr mutable ""
par CampusNetwork.branch2Host[10].ethg$o[0].channel delay 5e-08s
attr mutable ""
attr unit s
par CampusNetwork.branch2Host[10].ethg$o[0].channel datarate 1e+08bps
attr mutable ""
attr unit bps
par CampusNetwork.branch2Host[10].ethg$o[0].channel ber 0
attr mutable ""
par CampusNetwork.branch2Host[10].ethg$o[0].channel per 0
attr mutable ""
par CampusNetwork.branch2Host[10].ethg$o[0].channel enabledLineStyle "\"solid\""
par CampusNetwork.branch2Host[10].ethg$o[0].channel disabledLineStyle "\"dashed\""
par CampusNetwork.branch2Host[10].ethg$o[0].channel disabledIcon "\"status/cross\""
par CampusNetwork.branch2Host[10].ethg$o[0].channel length 10m
attr unit m
par CampusNetwork.branch2Switch.ethg$o[11].channel typename "\"inet.node.ethernet.Eth100M\""
par CampusNetwork.branch2Switch.ethg$o[11].channel disabled false
attr mutable ""
par CampusNetwork.branch2Switch.ethg$o[11].channel delay 5e-08s
attr mutable ""
attr unit s
par CampusNetwork.branch2Switch.ethg$o[11].channel datarate 1e+08bps
attr mutable ""
attr unit bps
par CampusNetwork.branch2Switch.ethg$o[11].channel ber 0
attr mutable ""
par CampusNetwork.branch2Switch.ethg$o[11].channel per 0
attr mutable ""
par CampusNetwork.branch2Switch.ethg$o[11].channel enabledLineStyle "\"solid\""
par CampusNetwork.branch2Switch.ethg$o[11].channel disabledLineStyle "\"dashed\""
par CampusNetwork.branch2Switch.ethg$o[11].channel disabledIcon "\"status/cross\""
par CampusNetwork.branch2Switch.ethg$o[11].channel length 10m
attr unit m
par CampusNetwork.branch2Host[11].ethg$o[0].channel typename "\"inet.node.ethernet.Eth100M\""
par CampusNetwork.branch2Host[11].ethg$o[0].channel disabled false
attr mutable ""
par CampusNetwork.branch2Host[11].ethg$o[0].channel delay 5e-08s
attr mutable ""
attr unit s
par CampusNetwork.branch2Host[11].ethg$o[0].channel datarate 1e+08bps
attr mutable ""
attr unit bps
par CampusNetwork.branch2Host[11].ethg$o[0].channel ber 0
attr mutable ""
par CampusNetwork.branch2Host[11].ethg$o[0].channel per 0
attr mutable ""
par CampusNetwork.branch2Host[11].ethg$o[0].channel enabledLineStyle "\"solid\""
par CampusNetwork.branch2Host[11].ethg$o[0].channel disabledLineStyle "\"dashed\""
par CampusNetwork.branch2Host[11].ethg$o[0].channel disabledIcon "\"status/cross\""
par CampusNetwork.branch2Host[11].ethg$o[0].channel length 10m
attr unit m
par CampusNetwork.branch2Switch.ethg$o[12].channel typename "\"inet.node.ethernet.Eth100M\""
par CampusNetwork.branch2Switch.ethg$o[12].channel disabled false
attr mutable ""
par CampusNetwork.branch2Switch.ethg$o[12].channel delay 5e-08s
attr mutable ""
attr unit s
par CampusNetwork.branch2Switch.ethg$o[12].channel datarate 1e+08bps
attr mutable ""
attr unit bps
par CampusNetwork.branch2Switch.ethg$o[12].channel ber 0
attr mutable ""
par CampusNetwork.branch2Switch.ethg$o[12].channel per 0
attr mutable ""
par CampusNetwork.branch2Switch.ethg$o[12].channel enabledLineStyle "\"solid\""
par CampusNetwork.branch2Switch.ethg$o[12].channel disabledLineStyle "\"dashed\""
par CampusNetwork.branch2Switch.ethg$o[12].channel disabledIcon "\"status/cross\""
par CampusNetwork.branch2Switch.ethg$o[12].channel length 10m
attr unit m
par CampusNetwork.branch2Host[12].ethg$o[0].channel typename "\"inet.node.ethernet.Eth100M\""
[...]
par CampusNetwork.branch2Host[24].ipv4.igmp displayStringTextFormat "\"\""
attr mutable ""
par CampusNetwork.branch2Host[24].ipv4.igmp interfaceTableModule "\"CampusNetwork.branch2Host[24].interfaceTable\""
par CampusNetwork.branch2Host[24].ipv4.igmp routingTableModule "\"CampusNetwork.branch2Host[24].ipv4.routingTable\""
par CampusNetwork.branch2Host[24].ipv4.igmp checksumMode "\"declared\""
attr enum declared,computed
par CampusNetwork.branch2Host[24].ipv4.igmp enabled true
par CampusNetwork.branch2Host[24].ipv4.igmp robustnessVariable 2
par CampusNetwork.branch2Host[24].ipv4.igmp queryInterval 125s
attr unit s
par CampusNetwork.branch2Host[24].ipv4.igmp queryResponseInterval 10s
attr unit s
par CampusNetwork.branch2Host[24].ipv4.igmp groupMembershipInterval 260s
attr unit s
par CampusNetwork.branch2Host[24].ipv4.igmp otherQuerierPresentInterval 255s
attr unit s
par CampusNetwork.branch2Host[24].ipv4.igmp startupQueryInterval 31.25s
attr unit s
par CampusNetwork.branch2Host[24].ipv4.igmp startupQueryCount 2
par CampusNetwork.branch2Host[24].ipv4.igmp lastMemberQueryInterval 1s
attr unit s
par CampusNetwork.branch2Host[24].ipv4.igmp lastMemberQueryCount 2
par CampusNetwork.branch2Host[24].ipv4.igmp unsolicitedReportInterval 10s
attr unit s
par CampusNetwork.branch2Host[24].ipv4.icmp typename "\"inet.networklayer.ipv4.Icmp\""
par CampusNetwork.branch2Host[24].ipv4.icmp displayStringTextFormat "\"\""
attr mutable ""
par CampusNetwork.branch2Host[24].ipv4.icmp interfaceTableModule "\"CampusNetwork.branch2Host[24].interfaceTable\""
par CampusNetwork.branch2Host[24].ipv4.icmp routingTableModule "\"CampusNetwork.branch2Host[24].ipv4.routingTable\""
par CampusNetwork.branch2Host[24].ipv4.icmp checksumMode "\"declared\""
attr enum declared,computed
attr mutable ""
par CampusNetwork.branch2Host[24].ipv4.icmp quoteLength 8B
attr mutable ""
attr unit B
par CampusNetwork.branch2Host[24].ipv4.mp typename "\"inet.common.MessageDispatcher\""
par CampusNetwork.branch2Host[24].ipv4.mp displayStringTextFormat "\"processed %p pk (%l)\""
attr mutable ""
par CampusNetwork.branch2Host[24].ipv4.mp interfaceTableModule "\"CampusNetwork.branch2Host[24].interfaceTable\""
par CampusNetwork.branch2Host[24].ipv4.mp forwardServiceRegistration true
par CampusNetwork.branch2Host[24].ipv4.mp forwardProtocolRegistration true
par CampusNetwork.branch2Host[24].ipv4.mp interfaceMapping {}
par CampusNetwork.branch2Host[24].ipv4.mp serviceMapping {}
par CampusNetwork.branch2Host[24].ipv4.mp protocolMapping {}
par CampusNetwork.branch2Host[24].ipv4.ip typename "\"inet.networklayer.ipv4.Ipv4\""
par CampusNetwork.branch2Host[24].ipv4.ip displayStringTextFormat "\"\""
attr mutable ""
par CampusNetwork.branch2Host[24].ipv4.ip interfaceTableModule "\"CampusNetwork.branch2Host[24].interfaceTable\""
par CampusNetwork.branch2Host[24].ipv4.ip routingTableModule "\"CampusNetwork.branch2Host[24].ipv4.routingTable\""
par CampusNetwork.branch2Host[24].ipv4.ip arpModule "\"CampusNetwork.branch2Host[24].ipv4.arp\""
par CampusNetwork.branch2Host[24].ipv4.ip icmpModule "\"CampusNetwork.branch2Host[24].ipv4.icmp\""
par CampusNetwork.branch2Host[24].ipv4.ip checksumMode "\"declared\""
attr enum declared,computed
par CampusNetwork.branch2Host[24].ipv4.ip timeToLive 32
par CampusNetwork.branch2Host[24].ipv4.ip multicastTimeToLive 32
par CampusNetwork.branch2Host[24].ipv4.ip fragmentTimeout 60s
attr unit s
par CampusNetwork.branch2Host[24].ipv4.ip limitedBroadcast false
par CampusNetwork.branch2Host[24].ipv4.ip directBroadcastInterfaces "\"\""
par CampusNetwork.branch2Host[24].ipv4.ip enableLocalOutMulticastRouting false
par CampusNetwork.branch2Host[24].ipv4.ip enableTimestampOption false
par CampusNetwork.branch2Host[24].ipv4.ip maxLifetime -1s
attr unit s
scalar CampusNetwork.branch2Host[24].ipv4.ip packetDropAddressResolutionFailed:count 0
attr interpolationmode none
attr recordingmode count
attr source packetDropReasonIsAddressResolutionFailed(packetDropped)
attr title "packet drop: address resolution failed, count"
scalar CampusNetwork.branch2Host[24].ipv4.ip packetDropAddressResolutionFailed:sum(packetBytes) 0
attr interpolationmode none
attr recordingmode sum(packetBytes)
attr source packetDropReasonIsAddressResolutionFailed(packetDropped)
attr title "packet drop: address resolution failed, sum(packetBytes)"
scalar CampusNetwork.branch2Host[24].ipv4.ip packetDropHopLimitReached:count 0
attr interpolationmode none
attr recordingmode count
attr source packetDropReasonIsHopLimitReached(packetDropped)
attr title "packet drop: hop limit reached, count"
scalar CampusNetwork.branch2Host[24].ipv4.ip packetDropHopLimitReached:sum(packetBytes) 0
attr interpolationmode none
attr recordingmode sum(packetBytes)
attr source packetDropReasonIsHopLimitReached(packetDropped)
attr title "packet drop: hop limit reached, sum(packetBytes)"
scalar CampusNetwork.branch2Host[24].ipv4.ip packetDropForwardingDisabled:count 0
attr interpolationmode none
attr recordingmode count
attr source packetDropReasonIsForwardingDisabled(packetDropped)
attr title "packet drop: forwarding disabled, count"
scalar CampusNetwork.branch2Host[24].ipv4.ip packetDropForwardingDisabled:sum(packetBytes) 0
attr interpolationmode none
attr recordingmode sum(packetBytes)
attr source packetDropReasonIsForwardingDisabled(packetDropped)
attr title "packet drop: forwarding disabled, sum(packetBytes)"
scalar CampusNetwork.branch2Host[24].ipv4.ip packetDropLifetimeExpired:count 0
attr interpolationmode none
attr recordingmode count
attr source packetDropReasonIsLifetimeExpired(packetDropped)
attr title "packet drop: lifetime expired, count"
scalar CampusNetwork.branch2Host[24].ipv4.ip packetDropLifetimeExpired:sum(packetBytes) 0
attr interpolationmode none
attr recordingmode sum(packetBytes)
attr source packetDropReasonIsLifetimeExpired(packetDropped)
attr title "packet drop: lifetime expired, sum(packetBytes)"
scalar CampusNetwork.branch2Host[24].ipv4.ip packetDropNoInterfaceFound:count 0
attr interpolationmode none
attr recordingmode count
attr source packetDropReasonIsNoInterfaceFound(packetDropped)
attr title "packet drop: no interface found, count"
scalar CampusNetwork.branch2Host[24].ipv4.ip packetDropNoInterfaceFound:sum(packetBytes) 0
attr interpolationmode none
attr recordingmode sum(packetBytes)
attr source packetDropReasonIsNoInterfaceFound(packetDropped)
attr title "packet drop: no interface found, sum(packetBytes)"
scalar CampusNetwork.branch2Host[24].ipv4.ip packetDropNoRouteFound:count 0
attr interpolationmode none
attr recordingmode count
attr source packetDropReasonIsNoRouteFound(packetDropped)
attr title "packet drop: no route found, count"
scalar CampusNetwork.branch2Host[24].ipv4.ip packetDropNoRouteFound:sum(packetBytes) 0
attr interpolationmode none
attr recordingmode sum(packetBytes)
attr source packetDropReasonIsNoRouteFound(packetDropped)
attr title "packet drop: no route found, sum(packetBytes)"
scalar CampusNetwork.branch2Host[24].ipv4.ip packetDropUndefined:count 0
attr interpolationmode none
attr recordingmode count
attr source packetDropReasonIsUndefined(packetDropped)
attr title "packet drop: undefined, count"
scalar CampusNetwork.branch2Host[24].ipv4.ip packetDropUndefined:sum(packetBytes) 0
attr interpolationmode none
attr recordingmode sum(packetBytes)
attr source packetDropReasonIsUndefined(packetDropped)
attr title "packet drop: undefined, sum(packetBytes)"
par CampusNetwork.branch2Host[24].ipv4.arp typename "\"inet.networklayer.arp.ipv4.Arp\""
par CampusNetwork.branch2Host[24].ipv4.arp displayStringTextFormat "\"\""
attr mutable ""
par CampusNetwork.branch2Host[24].ipv4.arp interfaceTableModule "\"CampusNetwork.branch2Host[24].interfaceTable\""
par CampusNetwork.branch2Host[24].ipv4.arp routingTableModule "\"CampusNetwork.branch2Host[24].ipv4.routingTable\""
par CampusNetwork.branch2Host[24].ipv4.arp retryTimeout 1s
attr unit s
par CampusNetwork.branch2Host[24].ipv4.arp retryCount 3
par CampusNetwork.branch2Host[24].ipv4.arp cacheTimeout 120s
attr unit s
par CampusNetwork.branch2Host[24].ipv4.arp proxyArpInterfaces "\"\""
scalar CampusNetwork.branch2Host[24].ipv4.arp arpResolutionFailed:count 0
attr recordingmode count
attr title "ARP failed resolutions, count"
scalar CampusNetwork.branch2Host[24].ipv4.arp arpResolutionCompleted:count 1
attr recordingmode count
attr title "ARP completed resolutions, count"
scalar CampusNetwork.branch2Host[24].ipv4.arp arpResolutionInitiated:count 1
attr recordingmode count
attr title "ARP initiated resolutions, count"
scalar CampusNetwork.branch2Host[24].ipv4.arp arpReplySent:count 0
attr recordingmode count
attr source arpReplySent
attr title "ARP replies sent, count"
scalar CampusNetwork.branch2Host[24].ipv4.arp arpReplySent:sum(packetBytes) 0
attr recordingmode sum(packetBytes)
attr source arpReplySent
attr title "ARP replies sent, sum(packetBytes)"
scalar CampusNetwork.branch2Host[24].ipv4.arp arpRequestSent:count 1
attr recordingmode count
attr source arpRequestSent
attr title "ARP request sent, count"
scalar CampusNetwork.branch2Host[24].ipv4.arp arpRequestSent:sum(packetBytes) 28
attr recordingmode sum(packetBytes)
attr source arpRequestSent
attr title "ARP request sent, sum(packetBytes)"
par CampusNetwork.branch2Host[24].ipv4.lp typename "\"inet.common.MessageDispatcher\""
par CampusNetwork.branch2Host[24].ipv4.lp displayStringTextFormat "\"processed %p pk (%l)\""
attr mutable ""
par CampusNetwork.branch2Host[24].ipv4.lp interfaceTableModule "\"CampusNetwork.branch2Host[24].interfaceTable\""
par CampusNetwork.branch2Host[24].ipv4.lp forwardServiceRegistration true
par CampusNetwork.branch2Host[24].ipv4.lp forwardProtocolRegistration true
par CampusNetwork.branch2Host[24].ipv4.lp interfaceMapping {}
par CampusNetwork.branch2Host[24].ipv4.lp serviceMapping {}
par CampusNetwork.branch2Host[24].ipv4.lp protocolMapping {}
par CampusNetwork.branch2Host[24].ipv4 typename "\"inet.networklayer.ipv4.Ipv4NetworkLayer\""
par CampusNetwork.branch2Host[24].ipv4 displayStringTextFormat "\"%i\""
attr mutable ""
par CampusNetwork.branch2Host[24].ipv4 forwarding false
par CampusNetwork.branch2Host[24].ipv4 multicastForwarding false
par CampusNetwork.branch2Host[24].ipv4 hasIpsec false
par CampusNetwork.branch2Host[24].ipv4 interfaceTableModule "\"CampusNetwork.branch2Host[24].interfaceTable\""
par CampusNetwork.branch2Host[24].nl typename "\"inet.common.MessageDispatcher\""
par CampusNetwork.branch2Host[24].nl displayStringTextFormat "\"processed %p pk (%l)\""
attr mutable ""
par CampusNetwork.branch2Host[24].nl interfaceTableModule "\"CampusNetwork.branch2Host[24].interfaceTable\""
par CampusNetwork.branch2Host[24].nl forwardServiceRegistration true
par CampusNetwork.branch2Host[24].nl forwardProtocolRegistration true
par CampusNetwork.branch2Host[24].nl interfaceMapping {}
par CampusNetwork.branch2Host[24].nl serviceMapping {}
par CampusNetwork.branch2Host[24].nl protocolMapping {}
par CampusNetwork.branch2Host[24].udp typename "\"inet.transportlayer.udp.Udp\""
par CampusNetwork.branch2Host[24].udp displayStringTextFormat "\"\""
attr mutable ""
par CampusNetwork.branch2Host[24].udp interfaceTableModule "\"CampusNetwork.branch2Host[24].interfaceTable\""
par CampusNetwork.branch2Host[24].udp icmpModule "\"^.ipv4.icmp\""
par CampusNetwork.branch2Host[24].udp icmpv6Module "\"^.ipv6.icmpv6\""
par CampusNetwork.branch2Host[24].udp checksumMode "\"declared\""
attr enum disabled,declared,computed
par CampusNetwork.branch2Host[24].udp defaultMulticastLoop true
scalar CampusNetwork.branch2Host[24].udp packetReceived:count 0
attr interpolationmode none
attr recordingmode count
attr source packetReceived
attr title "packets received, count"
scalar CampusNetwork.branch2Host[24].udp packetReceived:sum(packetBytes) 0
attr interpolationmode none
attr recordingmode sum(packetBytes)
attr source packetReceived
attr title "packets received, sum(packetBytes)"
scalar CampusNetwork.branch2Host[24].udp packetSent:count 500
attr interpolationmode none
attr recordingmode count
attr source packetSent
attr title "packets sent, count"
scalar CampusNetwork.branch2Host[24].udp packetSent:sum(packetBytes) 604000
attr interpolationmode none
attr recordingmode sum(packetBytes)
attr source packetSent
attr title "packets sent, sum(packetBytes)"
scalar CampusNetwork.branch2Host[24].udp passedUpPk:count 0
attr interpolationmode none
attr recordingmode count
attr source packetSentToUpper
attr title "packets passed up, count"
scalar CampusNetwork.branch2Host[24].udp droppedPkWrongPort:count 0
attr interpolationmode none
attr recordingmode count
attr source packetDropReasonIsNoPortFound(packetDropped)
attr title "packets dropped (wrong port), count"
scalar CampusNetwork.branch2Host[24].udp droppedPkBadChecksum:count 0
attr interpolationmode none
attr recordingmode count
attr source packetDropReasonIsIncorrectlyReceived(packetDropped)
attr title "packets dropped (checksum error), count"
par CampusNetwork.branch2Host[24].tcp typename "\"inet.transportlayer.tcp.Tcp\""
par CampusNetwork.branch2Host[24].tcp displayStringTextFormat "\"\""
attr mutable ""
par CampusNetwork.branch2Host[24].tcp checksumMode "\"declared\""
attr enum declared,computed
par CampusNetwork.branch2Host[24].tcp advertisedWindow 7504
par CampusNetwork.branch2Host[24].tcp delayedAcksEnabled false
par CampusNetwork.branch2Host[24].tcp nagleEnabled true
par CampusNetwork.branch2Host[24].tcp limitedTransmitEnabled false
par CampusNetwork.branch2Host[24].tcp increasedIWEnabled false
par CampusNetwork.branch2Host[24].tcp sackSupport false
par CampusNetwork.branch2Host[24].tcp windowScalingSupport false
par CampusNetwork.branch2Host[24].tcp windowScalingFactor -1
par CampusNetwork.branch2Host[24].tcp timestampSupport false
par CampusNetwork.branch2Host[24].tcp mss 536
par CampusNetwork.branch2Host[24].tcp msl 120s
attr unit s
par CampusNetwork.branch2Host[24].tcp tcpAlgorithmClass "\"TcpReno\""
attr examples TcpVegas,TcpWestwood,DcTcp,TcpNewReno,TcpReno,TcpTahoe,TcpNoCongestionControl
par CampusNetwork.branch2Host[24].tcp dupthresh 3
par CampusNetwork.branch2Host[24].tcp initialSsthresh 4294967295
par CampusNetwork.branch2Host[24].tcp stopOperationExtraTime 0s
attr unit s
par CampusNetwork.branch2Host[24].tcp stopOperationTimeout 2s
attr unit s
par CampusNetwork.branch2Host[24].tcp ecnWillingness false
par CampusNetwork.branch2Host[24].tcp dctcpGamma 0.0625
par CampusNetwork.branch2Host[24].tn typename "\"inet.common.MessageDispatcher\""
par CampusNetwork.branch2Host[24].tn displayStringTextFormat "\"processed %p pk (%l)\""
attr mutable ""
par CampusNetwork.branch2Host[24].tn interfaceTableModule "\"CampusNetwork.branch2Host[24].interfaceTable\""
par CampusNetwork.branch2Host[24].tn forwardServiceRegistration true
par CampusNetwork.branch2Host[24].tn forwardProtocolRegistration true
par CampusNetwork.branch2Host[24].tn interfaceMapping {}
par CampusNetwork.branch2Host[24].tn serviceMapping {}
par CampusNetwork.branch2Host[24].tn protocolMapping {}
par CampusNetwork.branch2Host[24].app[0] typename "\"inet.applications.udpapp.UdpBasicApp\""
par CampusNetwork.branch2Host[24].app[0] displayStringTextFormat "\"\""
attr mutable ""
par CampusNetwork.branch2Host[24].app[0] interfaceTableModule "\"CampusNetwork.branch2Host[24].interfaceTable\""
par CampusNetwork.branch2Host[24].app[0] clockModule "\"\""
par CampusNetwork.branch2Host[24].app[0] localPort -1
par CampusNetwork.branch2Host[24].app[0] destAddresses "\"server2\""
par CampusNetwork.branch2Host[24].app[0] localAddress "\"\""
par CampusNetwork.branch2Host[24].app[0] packetName "\"UdpBasicAppData\""
par CampusNetwork.branch2Host[24].app[0] destPort 5001
par CampusNetwork.branch2Host[24].app[0] messageLength 1200B
attr unit B
par CampusNetwork.branch2Host[24].app[0] startTime 0s
attr unit s
par CampusNetwork.branch2Host[24].app[0] stopTime 39s
attr unit s
par CampusNetwork.branch2Host[24].app[0] sendInterval exponential(0.07s)
attr unit s
par CampusNetwork.branch2Host[24].app[0] timeToLive -1
par CampusNetwork.branch2Host[24].app[0] dontFragment false
par CampusNetwork.branch2Host[24].app[0] dscp -1
par CampusNetwork.branch2Host[24].app[0] tos -1
par CampusNetwork.branch2Host[24].app[0] multicastInterface "\"\""
par CampusNetwork.branch2Host[24].app[0] receiveBroadcast false
par CampusNetwork.branch2Host[24].app[0] joinLocalMulticastGroups false
par CampusNetwork.branch2Host[24].app[0] stopOperationExtraTime -1s
attr unit s
par CampusNetwork.branch2Host[24].app[0] stopOperationTimeout 2s
attr unit s
scalar CampusNetwork.branch2Host[24].app[0] "packets sent" 500
scalar CampusNetwork.branch2Host[24].app[0] "packets received" 0
scalar CampusNetwork.branch2Host[24].app[0] packetReceived:count 0
attr interpolationmode none
attr recordingmode count
attr source packetReceived
attr title "packets received, count"
scalar CampusNetwork.branch2Host[24].app[0] packetReceived:sum(packetBytes) 0
attr interpolationmode none
attr recordingmode sum(packetBytes)
attr source packetReceived
attr title "packets received, sum(packetBytes)"
statistic CampusNetwork.branch2Host[24].app[0] rcvdPkLifetime:stats
field count 0
field mean nan
field stddev nan
field min nan
field max nan
field sum 0
field sqrsum 0
attr interpolationmode none
attr recordingmode stats
attr source dataAge(packetReceived)
attr title "received packet lifetime"
attr unit s
scalar CampusNetwork.branch2Host[24].app[0] packetSent:count 500
attr interpolationmode none
attr recordingmode count
attr source packetSent
attr title "packets sent, count"
scalar CampusNetwork.branch2Host[24].app[0] packetSent:sum(packetBytes) 6e+05
attr interpolationmode none
attr recordingmode sum(packetBytes)
attr source packetSent
attr title "packets sent, sum(packetBytes)"
par CampusNetwork.branch2Host[24].at typename "\"inet.common.MessageDispatcher\""
par CampusNetwork.branch2Host[24].at displayStringTextFormat "\"processed %p pk (%l)\""
attr mutable ""
par CampusNetwork.branch2Host[24].at interfaceTableModule "\"CampusNetwork.branch2Host[24].interfaceTable\""
par CampusNetwork.branch2Host[24].at forwardServiceRegistration true
par CampusNetwork.branch2Host[24].at forwardProtocolRegistration true
par CampusNetwork.branch2Host[24].at interfaceMapping {}
par CampusNetwork.branch2Host[24].at serviceMapping {}
par CampusNetwork.branch2Host[24].at protocolMapping {}
par CampusNetwork.branch2Host[24] typename "\"inet.node.inet.StandardHost\""
par CampusNetwork.branch2Host[24] displayStringTextFormat "\"\""
attr mutable ""
par CampusNetwork.branch2Host[24] hasStatus false
par CampusNetwork.branch2Host[24] hasEnvironment false
par CampusNetwork.branch2Host[24] osgModel "\"\""
par CampusNetwork.branch2Host[24] osgModelColor "\"\""
par CampusNetwork.branch2Host[24] canvasImage "\"\""
par CampusNetwork.branch2Host[24] canvasImageColor "\"\""
par CampusNetwork.branch2Host[24] recordPcap false
par CampusNetwork.branch2Host[24] numPcapRecorders 0
par CampusNetwork.branch2Host[24] numLoInterfaces 1
par CampusNetwork.branch2Host[24] numWlanInterfaces 0
par CampusNetwork.branch2Host[24] numEthInterfaces 0
par CampusNetwork.branch2Host[24] numPppInterfaces 0
par CampusNetwork.branch2Host[24] numTunInterfaces 0
par CampusNetwork.branch2Host[24] numVirtInterfaces 0
par CampusNetwork.branch2Host[24] fcsMode "\"declared\""
attr enum declared,computed
par CampusNetwork.branch2Host[24] hasIpv4 true
par CampusNetwork.branch2Host[24] hasIpv6 false
par CampusNetwork.branch2Host[24] hasGn false
par CampusNetwork.branch2Host[24] forwarding false
par CampusNetwork.branch2Host[24] multicastForwarding false
par CampusNetwork.branch2Host[24] hasUdp true
par CampusNetwork.branch2Host[24] hasTcp true
par CampusNetwork.branch2Host[24] hasSctp false
par CampusNetwork.branch2Host[24] hasQuic false
par CampusNetwork.branch2Host[24] numApps 1
par CampusNetwork typename "\"simulations.ned.CampusNetwork\""
par CampusNetwork numBranch1Hosts 25
par CampusNetwork numBranch2Hosts 25

