file 82902166 1779990422                                        
version 3
run Scalability-0-20260528-21:46:56-86868
attr configname Scalability
attr datetime 20260528-21:46:56
attr datetimef 20260528-214656
attr experiment Scalability
attr inifile omnetpp.ini
attr iterationvars ""
attr iterationvarsd ""
attr iterationvarsf ""
attr measurement ""
attr network simulations.ned.CampusNetwork
attr processid 86868
attr repetition 0
attr replication #0
attr resultdir results
attr runnumber 0
attr seedset 0
config description "Đ Đ°Ń\xFFŃ\xFFĐ¸Ń\xFFĐµĐ˝Đ˝Đ°Ń\xFF Ń\xFFĐµŃ\xFFŃ\xFF"
config *.numBranch1Hosts 25
config *.numBranch2Hosts 25
config *.branch1Host[*].app[*].messageLength 1200B
config *.branch1Host[*].app[*].sendInterval exponential(0.07s)
config *.branch2Host[*].app[*].messageLength 1200B
config *.branch2Host[*].app[*].sendInterval exponential(0.07s)
config network simulations.ned.CampusNetwork
config sim-time-limit 40s
config repeat 5
config seed-set 0
config **.crcMode "\"declared\""
config **.fcsMode "\"declared\""
config **.ipv4.checksum.typename InternetChecksum
config *.configurator.typename inet.networklayer.configurator.ipv4.Ipv4NetworkConfigurator
config *.configurator.addStaticRoutes true
config *.configurator.assignDisjunctSubnetAddresses true
config *.configurator.addDefaultRoutes true
config *.server1.numApps 1
config *.server1.app[*].typename UdpSink
config *.server1.app[*].localPort 5000
config *.server2.numApps 1
config *.server2.app[*].typename UdpSink
config *.server2.app[*].localPort 5001
config *.numBranch1Hosts 20
config *.numBranch2Hosts 20
config *.branch1Host[*].numApps 1
config *.branch1Host[*].app[*].typename UdpBasicApp
config *.branch1Host[*].app[*].destAddresses "\"server1\""
config *.branch1Host[*].app[*].destPort 5000
config *.branch1Host[*].app[*].startTime 0s
config *.branch1Host[*].app[*].stopTime 39s
config *.branch1Host[*].app[*].messageLength 1200B
config *.branch1Host[*].app[*].sendInterval exponential(0.07s)
config *.branch2Host[*].numApps 1
config *.branch2Host[*].app[*].typename UdpBasicApp
config *.branch2Host[*].app[*].destAddresses "\"server2\""
config *.branch2Host[*].app[*].destPort 5001
config *.branch2Host[*].app[*].startTime 0s
config *.branch2Host[*].app[*].stopTime 39s
config *.branch2Host[*].app[*].messageLength 1200B
config *.branch2Host[*].app[*].sendInterval exponential(0.07s)
config **.vector-recording true
config **.scalar-recording true
config **.endToEndDelay.vector-recording true
config *.scenarioManager.script "xml(\"<scenario><at t='10.0s'><shutdown module='mainRouter'/></at></scenario>\")"

vector 0 CampusNetwork.internet.internalSwitch.bridging packetDropped:vector(packetBytes) ETV
attr interpolationmode none
attr recordingmode vector(packetBytes)
attr title "packets dropped, packetBytes"
vector 1 CampusNetwork.internet.internalSwitch.ethernet encapPk:vector(packetBytes) ETV
attr interpolationmode none
attr recordingmode vector(packetBytes)
attr source encapPk
attr title "packets encapsulated, packetBytes"
vector 2 CampusNetwork.internet.internalSwitch.ethernet decapPk:vector(packetBytes) ETV
attr interpolationmode none
attr recordingmode vector(packetBytes)
attr source decapPk
attr title "packets decapsulated, packetBytes"
vector 3 CampusNetwork.internet.internalSwitch.ethernet pauseSent:vector ETV
attr recordingmode vector
attr title "pause sent"
vector 4 CampusNetwork.internet.internalSwitch.eth[0].queue queueLength:vector ETV
attr autoWarmupFilter false
attr interpolationmode sample-hold
attr recordingmode vector
attr source "warmup(atomic(constant0(packetPushEnded) + count(packetPushStarted) - count(packetPulled) - count(packetRemoved) - count(packetDropped)))"
attr title "queue length"
attr unit pk
vector 5 CampusNetwork.internet.internalSwitch.eth[0].queue queueBitLength:vector ETV
attr autoWarmupFilter false
attr interpolationmode sample-hold
attr recordingmode vector
attr source "warmup(atomic(constant0(packetPushEnded) + sum(packetLength(packetPushStarted)) - sum(packetLength(packetPulled)) - sum(packetLength(packetRemoved)) - sum(packetLength(packetDropped))))"
attr title "queue bit length"
attr unit b
vector 6 CampusNetwork.internet.internalSwitch.eth[0].queue queueingTime:vector ETV
attr interpolationmode none
attr recordingmode vector
attr source queueingTime(packetPulled)
attr title "queueing times"
attr unit s
vector 7 CampusNetwork.internet.internalSwitch.eth[0].queue incomingPacketLengths:vector ETV
attr interpolationmode none
attr recordingmode vector
attr source packetLength(packetPushStarted)
attr title "incoming packet lengths"
attr unit b
vector 8 CampusNetwork.internet.internalSwitch.eth[0].queue incomingDataRate:vector ETV
attr interpolationmode linear
attr recordingmode vector
attr source throughput(packetPushStarted)
attr title "incoming datarate"
attr unit bps
vector 9 CampusNetwork.internet.internalSwitch.eth[0].queue outgoingPacketLengths:vector ETV
attr interpolationmode none
attr recordingmode vector
attr source packetLength(packetPulled)
attr title "outgoing packet lengths"
attr unit b
vector 10 CampusNetwork.internet.internalSwitch.eth[0].queue outgoingDataRate:vector ETV
attr interpolationmode linear
attr recordingmode vector
attr source throughput(packetPulled)
attr title "outgoing datarate"
attr unit bps
vector 11 CampusNetwork.internet.internalSwitch.eth[0].queue droppedPacketLengthsQueueOverflow:vector ETV
attr interpolationmode none
attr recordingmode vector
attr source packetLength(packetDropReasonIsQueueOverflow(packetDropped))
attr title "dropped packet lengths: queue overflow"
attr unit b
vector 12 CampusNetwork.internet.internalSwitch.eth[0].queue flowQueueingTime:vector ETV
attr interpolationmode none
attr recordingmode vector
attr source queueingTime(demuxFlow(packetPulled))
attr title "flow queueing times"
attr unit s
vector 13 CampusNetwork.internet.internalSwitch.eth[0].queue flowIncomingDataRate:vector ETV
attr interpolationmode linear
attr recordingmode vector
attr source throughput(flowPacketLength(demuxFlow(packetPushStarted)))
attr title "flow specific incoming data rate"
attr unit bps
vector 14 CampusNetwork.internet.internalSwitch.eth[0].queue flowOutgoingDataRate:vector ETV
attr interpolationmode linear
attr recordingmode vector
attr source throughput(flowPacketLength(demuxFlow(packetPulled)))
attr title "flow specific outgoing data rate"
attr unit bps
vector 15 CampusNetwork.internet.internalSwitch.eth[0].mac transmitting:vector ETV
attr interpolationmode sample-hold
attr recordingmode vector
attr source "count(transmissionStarted) - count(transmissionEnded)"
attr title "transmitting state"
attr type int
vector 16 CampusNetwork.internet.internalSwitch.eth[0].mac throughput:vector ETV
attr interpolationmode linear
attr recordingmode vector
attr source throughput(transmissionEnded)
attr title throughput
attr unit bps
vector 17 CampusNetwork.internet.internalSwitch.eth[0].mac utilization:vector ETV
attr interpolationmode linear
attr recordingmode vector
attr source "100 * utilization(count(transmissionStarted) - count(transmissionEnded))"
attr title utilization
attr unit %
vector 18 CampusNetwork.internet.internalSwitch.eth[0].mac txPk:vector(packetBytes) ETV
attr interpolationmode none
attr recordingmode vector(packetBytes)
attr source packetSentToLower
attr title "packets transmitted, packetBytes"
vector 19 CampusNetwork.internet.internalSwitch.eth[0].mac rxPkOk:vector(packetBytes) ETV
attr interpolationmode none
attr recordingmode vector(packetBytes)
attr source rxPkOk
attr title "packets received OK, packetBytes"
vector 20 CampusNetwork.internet.internalSwitch.eth[0].mac passedUpPk:vector(packetBytes) ETV
attr interpolationmode none
attr recordingmode vector(packetBytes)
attr source packetSentToUpper
attr title "packets passed to higher layer, packetBytes"
vector 21 CampusNetwork.internet.internalSwitch.eth[0].mac txPausePkUnits:vector ETV
attr interpolationmode none
attr recordingmode vector
attr title "pause units sent"
vector 22 CampusNetwork.internet.internalSwitch.eth[0].mac rxPausePkUnits:vector ETV
attr interpolationmode none
attr recordingmode vector
attr title "pause units received"
vector 23 CampusNetwork.internet.internalSwitch.eth[0].mac packetReceivedFromUpper:vector(packetBytes) ETV
attr interpolationmode none
attr recordingmode vector(packetBytes)
attr source packetReceivedFromUpper
attr title "packet bytes from higher layer, packetBytes"
vector 24 CampusNetwork.internet.internalSwitch.eth[0].mac packetDropIncorrectlyReceived:vector(packetBytes) ETV
attr interpolationmode none
attr recordingmode vector(packetBytes)
attr source packetDropReasonIsIncorrectlyReceived(packetDropped)
attr title "packet drop: incorrectly received, packetBytes"
vector 25 CampusNetwork.internet.internalSwitch.eth[0].mac packetDropInterfaceDown:vector(packetBytes) ETV
attr interpolationmode none
attr recordingmode vector(packetBytes)
attr source packetDropReasonIsInterfaceDown(packetDropped)
attr title "packet drop: interface down, packetBytes"
vector 26 CampusNetwork.internet.internalSwitch.eth[0].mac packetDropNotAddressedToUs:vector(packetBytes) ETV
attr interpolationmode none
attr recordingmode vector(packetBytes)
attr source packetDropReasonIsNotAddressedToUs(packetDropped)
attr title "packet drop: not addressed to us, packetBytes"
vector 27 CampusNetwork.internet.internalSwitch.eth[0] packetDropInterfaceDown:vector(packetBytes) ETV
attr interpolationmode none
attr recordingmode vector(packetBytes)
attr source packetDropReasonIsInterfaceDown(packetDropped)
attr title "packet drops: interface down, packetBytes"
vector 28 CampusNetwork.internet.internalSwitch.eth[0] packetDropNoCarrier:vector(packetBytes) ETV
attr interpolationmode none
attr recordingmode vector(packetBytes)
attr source packetDropReasonIsNoCarrier(packetDropped)
attr title "packet drops: no carrier, packetBytes"
vector 29 CampusNetwork.internet.internalSwitch.eth[1].queue queueLength:vector ETV
attr autoWarmupFilter false
attr interpolationmode sample-hold
attr recordingmode vector
attr source "warmup(atomic(constant0(packetPushEnded) + count(packetPushStarted) - count(packetPulled) - count(packetRemoved) - count(packetDropped)))"
attr title "queue length"
attr unit pk
vector 30 CampusNetwork.internet.internalSwitch.eth[1].queue queueBitLength:vector ETV
attr autoWarmupFilter false
attr interpolationmode sample-hold
attr recordingmode vector
attr source "warmup(atomic(constant0(packetPushEnded) + sum(packetLength(packetPushStarted)) - sum(packetLength(packetPulled)) - sum(packetLength(packetRemoved)) - sum(packetLength(packetDropped))))"
attr title "queue bit length"
attr unit b
vector 31 CampusNetwork.internet.internalSwitch.eth[1].queue queueingTime:vector ETV
attr interpolationmode none
attr recordingmode vector
attr source queueingTime(packetPulled)
attr title "queueing times"
attr unit s
vector 32 CampusNetwork.internet.internalSwitch.eth[1].queue incomingPacketLengths:vector ETV
attr interpolationmode none
attr recordingmode vector
attr source packetLength(packetPushStarted)
attr title "incoming packet lengths"
attr unit b
vector 33 CampusNetwork.internet.internalSwitch.eth[1].queue incomingDataRate:vector ETV
attr interpolationmode linear
attr recordingmode vector
attr source throughput(packetPushStarted)
attr title "incoming datarate"
attr unit bps
vector 34 CampusNetwork.internet.internalSwitch.eth[1].queue outgoingPacketLengths:vector ETV
attr interpolationmode none
attr recordingmode vector
attr source packetLength(packetPulled)
attr title "outgoing packet lengths"
attr unit b
vector 35 CampusNetwork.internet.internalSwitch.eth[1].queue outgoingDataRate:vector ETV
attr interpolationmode linear
attr recordingmode vector
attr source throughput(packetPulled)
attr title "outgoing datarate"
attr unit bps
vector 36 CampusNetwork.internet.internalSwitch.eth[1].queue droppedPacketLengthsQueueOverflow:vector ETV
attr interpolationmode none
attr recordingmode vector
attr source packetLength(packetDropReasonIsQueueOverflow(packetDropped))
attr title "dropped packet lengths: queue overflow"
attr unit b
vector 37 CampusNetwork.internet.internalSwitch.eth[1].queue flowQueueingTime:vector ETV
attr interpolationmode none
attr recordingmode vector
attr source queueingTime(demuxFlow(packetPulled))
attr title "flow queueing times"
attr unit s
vector 38 CampusNetwork.internet.internalSwitch.eth[1].queue flowIncomingDataRate:vector ETV
attr interpolationmode linear
attr recordingmode vector
attr source throughput(flowPacketLength(demuxFlow(packetPushStarted)))
attr title "flow specific incoming data rate"
attr unit bps
vector 39 CampusNetwork.internet.internalSwitch.eth[1].queue flowOutgoingDataRate:vector ETV
attr interpolationmode linear
attr recordingmode vector
attr source throughput(flowPacketLength(demuxFlow(packetPulled)))
attr title "flow specific outgoing data rate"
attr unit bps
vector 40 CampusNetwork.internet.internalSwitch.eth[1].mac transmitting:vector ETV
attr interpolationmode sample-hold
attr recordingmode vector
attr source "count(transmissionStarted) - count(transmissionEnded)"
attr title "transmitting state"
attr type int
vector 41 CampusNetwork.internet.internalSwitch.eth[1].mac throughput:vector ETV
attr interpolationmode linear
attr recordingmode vector
attr source throughput(transmissionEnded)
attr title throughput
attr unit bps
vector 42 CampusNetwork.internet.internalSwitch.eth[1].mac utilization:vector ETV
attr interpolationmode linear
attr recordingmode vector
attr source "100 * utilization(count(transmissionStarted) - count(transmissionEnded))"
attr title utilization
attr unit %
vector 43 CampusNetwork.internet.internalSwitch.eth[1].mac txPk:vector(packetBytes) ETV
attr interpolationmode none
attr recordingmode vector(packetBytes)
attr source packetSentToLower
attr title "packets transmitted, packetBytes"
vector 44 CampusNetwork.internet.internalSwitch.eth[1].mac rxPkOk:vector(packetBytes) ETV
attr interpolationmode none
attr recordingmode vector(packetBytes)
attr source rxPkOk
attr title "packets received OK, packetBytes"
vector 45 CampusNetwork.internet.internalSwitch.eth[1].mac passedUpPk:vector(packetBytes) ETV
attr interpolationmode none
attr recordingmode vector(packetBytes)
attr source packetSentToUpper
attr title "packets passed to higher layer, packetBytes"
vector 46 CampusNetwork.internet.internalSwitch.eth[1].mac txPausePkUnits:vector ETV
attr interpolationmode none
attr recordingmode vector
attr title "pause units sent"
vector 47 CampusNetwork.internet.internalSwitch.eth[1].mac rxPausePkUnits:vector ETV
attr interpolationmode none
attr recordingmode vector
attr title "pause units received"
vector 48 CampusNetwork.internet.internalSwitch.eth[1].mac packetReceivedFromUpper:vector(packetBytes) ETV
attr interpolationmode none
attr recordingmode vector(packetBytes)
attr source packetReceivedFromUpper
attr title "packet bytes from higher layer, packetBytes"
vector 49 CampusNetwork.internet.internalSwitch.eth[1].mac packetDropIncorrectlyReceived:vector(packetBytes) ETV
attr interpolationmode none
attr recordingmode vector(packetBytes)
attr source packetDropReasonIsIncorrectlyReceived(packetDropped)
attr title "packet drop: incorrectly received, packetBytes"
vector 50 CampusNetwork.internet.internalSwitch.eth[1].mac packetDropInterfaceDown:vector(packetBytes) ETV
attr interpolationmode none
attr recordingmode vector(packetBytes)
attr source packetDropReasonIsInterfaceDown(packetDropped)
attr title "packet drop: interface down, packetBytes"
vector 51 CampusNetwork.internet.internalSwitch.eth[1].mac packetDropNotAddressedToUs:vector(packetBytes) ETV
attr interpolationmode none
attr recordingmode vector(packetBytes)
attr source packetDropReasonIsNotAddressedToUs(packetDropped)
attr title "packet drop: not addressed to us, packetBytes"
vector 52 CampusNetwork.internet.internalSwitch.eth[1] packetDropInterfaceDown:vector(packetBytes) ETV
attr interpolationmode none
attr recordingmode vector(packetBytes)
attr source packetDropReasonIsInterfaceDown(packetDropped)
attr title "packet drops: interface down, packetBytes"
vector 53 CampusNetwork.internet.internalSwitch.eth[1] packetDropNoCarrier:vector(packetBytes) ETV
attr interpolationmode none
attr recordingmode vector(packetBytes)
attr source packetDropReasonIsNoCarrier(packetDropped)
attr title "packet drops: no carrier, packetBytes"
vector 54 CampusNetwork.internet.internalSwitch.eth[2].queue queueLength:vector ETV
attr autoWarmupFilter false
attr interpolationmode sample-hold
attr recordingmode vector
attr source "warmup(atomic(constant0(packetPushEnded) + count(packetPushStarted) - count(packetPulled) - count(packetRemoved) - count(packetDropped)))"
attr title "queue length"
attr unit pk
vector 55 CampusNetwork.internet.internalSwitch.eth[2].queue queueBitLength:vector ETV
attr autoWarmupFilter false
attr interpolationmode sample-hold
attr recordingmode vector
attr source "warmup(atomic(constant0(packetPushEnded) + sum(packetLength(packetPushStarted)) - sum(packetLength(packetPulled)) - sum(packetLength(packetRemoved)) - sum(packetLength(packetDropped))))"
attr title "queue bit length"
attr unit b
vector 56 CampusNetwork.internet.internalSwitch.eth[2].queue queueingTime:vector ETV
attr interpolationmode none
attr recordingmode vector
attr source queueingTime(packetPulled)
attr title "queueing times"
attr unit s
vector 57 CampusNetwork.internet.internalSwitch.eth[2].queue incomingPacketLengths:vector ETV
attr interpolationmode none
attr recordingmode vector
attr source packetLength(packetPushStarted)
attr title "incoming packet lengths"
attr unit b
vector 58 CampusNetwork.internet.internalSwitch.eth[2].queue incomingDataRate:vector ETV
attr interpolationmode linear
attr recordingmode vector
attr source throughput(packetPushStarted)
attr title "incoming datarate"
attr unit bps
vector 59 CampusNetwork.internet.internalSwitch.eth[2].queue outgoingPacketLengths:vector ETV
attr interpolationmode none
attr recordingmode vector
attr source packetLength(packetPulled)
attr title "outgoing packet lengths"
attr unit b
vector 60 CampusNetwork.internet.internalSwitch.eth[2].queue outgoingDataRate:vector ETV
attr interpolationmode linear
attr recordingmode vector
attr source throughput(packetPulled)
attr title "outgoing datarate"
attr unit bps
vector 61 CampusNetwork.internet.internalSwitch.eth[2].queue droppedPacketLengthsQueueOverflow:vector ETV
attr interpolationmode none
attr recordingmode vector
attr source packetLength(packetDropReasonIsQueueOverflow(packetDropped))
attr title "dropped packet lengths: queue overflow"
attr unit b
vector 62 CampusNetwork.internet.internalSwitch.eth[2].queue flowQueueingTime:vector ETV
attr interpolationmode none
attr recordingmode vector
attr source queueingTime(demuxFlow(packetPulled))
attr title "flow queueing times"
attr unit s
vector 63 CampusNetwork.internet.internalSwitch.eth[2].queue flowIncomingDataRate:vector ETV
attr interpolationmode linear
attr recordingmode vector
attr source throughput(flowPacketLength(demuxFlow(packetPushStarted)))
attr title "flow specific incoming data rate"
attr unit bps
vector 64 CampusNetwork.internet.internalSwitch.eth[2].queue flowOutgoingDataRate:vector ETV
attr interpolationmode linear
attr recordingmode vector
attr source throughput(flowPacketLength(demuxFlow(packetPulled)))
attr title "flow specific outgoing data rate"
attr unit bps
vector 65 CampusNetwork.internet.internalSwitch.eth[2].mac transmitting:vector ETV
attr interpolationmode sample-hold
attr recordingmode vector
attr source "count(transmissionStarted) - count(transmissionEnded)"
attr title "transmitting state"
attr type int
vector 66 CampusNetwork.internet.internalSwitch.eth[2].mac throughput:vector ETV
attr interpolationmode linear
attr recordingmode vector
attr source throughput(transmissionEnded)
attr title throughput
attr unit bps
vector 67 CampusNetwork.internet.internalSwitch.eth[2].mac utilization:vector ETV
attr interpolationmode linear
attr recordingmode vector
attr source "100 * utilization(count(transmissionStarted) - count(transmissionEnded))"
attr title utilization
attr unit %
vector 68 CampusNetwork.internet.internalSwitch.eth[2].mac txPk:vector(packetBytes) ETV
attr interpolationmode none
attr recordingmode vector(packetBytes)
attr source packetSentToLower
attr title "packets transmitted, packetBytes"
vector 69 CampusNetwork.internet.internalSwitch.eth[2].mac rxPkOk:vector(packetBytes) ETV
attr interpolationmode none
attr recordingmode vector(packetBytes)
attr source rxPkOk
attr title "packets received OK, packetBytes"
vector 70 CampusNetwork.internet.internalSwitch.eth[2].mac passedUpPk:vector(packetBytes) ETV
attr interpolationmode none
attr recordingmode vector(packetBytes)
attr source packetSentToUpper
attr title "packets passed to higher layer, packetBytes"
vector 71 CampusNetwork.internet.internalSwitch.eth[2].mac txPausePkUnits:vector ETV
attr interpolationmode none
attr recordingmode vector
attr title "pause units sent"
vector 72 CampusNetwork.internet.internalSwitch.eth[2].mac rxPausePkUnits:vector ETV
attr interpolationmode none
attr recordingmode vector
attr title "pause units received"
vector 73 CampusNetwork.internet.internalSwitch.eth[2].mac packetReceivedFromUpper:vector(packetBytes) ETV
attr interpolationmode none
attr recordingmode vector(packetBytes)
attr source packetReceivedFromUpper
attr title "packet bytes from higher layer, packetBytes"
vector 74 CampusNetwork.internet.internalSwitch.eth[2].mac packetDropIncorrectlyReceived:vector(packetBytes) ETV
attr interpolationmode none
attr recordingmode vector(packetBytes)
attr source packetDropReasonIsIncorrectlyReceived(packetDropped)
attr title "packet drop: incorrectly received, packetBytes"
vector 75 CampusNetwork.internet.internalSwitch.eth[2].mac packetDropInterfaceDown:vector(packetBytes) ETV
attr interpolationmode none
attr recordingmode vector(packetBytes)
attr source packetDropReasonIsInterfaceDown(packetDropped)
attr title "packet drop: interface down, packetBytes"
vector 76 CampusNetwork.internet.internalSwitch.eth[2].mac packetDropNotAddressedToUs:vector(packetBytes) ETV
attr interpolationmode none
attr recordingmode vector(packetBytes)
attr source packetDropReasonIsNotAddressedToUs(packetDropped)
attr title "packet drop: not addressed to us, packetBytes"
vector 77 CampusNetwork.internet.internalSwitch.eth[2] packetDropInterfaceDown:vector(packetBytes) ETV
attr interpolationmode none
attr recordingmode vector(packetBytes)
attr source packetDropReasonIsInterfaceDown(packetDropped)
attr title "packet drops: interface down, packetBytes"
vector 78 CampusNetwork.internet.internalSwitch.eth[2] packetDropNoCarrier:vector(packetBytes) ETV
attr interpolationmode none
attr recordingmode vector(packetBytes)
attr source packetDropReasonIsNoCarrier(packetDropped)
attr title "packet drops: no carrier, packetBytes"
vector 79 CampusNetwork.internet.internalSwitch.eth[3].queue queueLength:vector ETV
attr autoWarmupFilter false
attr interpolationmode sample-hold
attr recordingmode vector
attr source "warmup(atomic(constant0(packetPushEnded) + count(packetPushStarted) - count(packetPulled) - count(packetRemoved) - count(packetDropped)))"
attr title "queue length"
attr unit pk
vector 80 CampusNetwork.internet.internalSwitch.eth[3].queue queueBitLength:vector ETV
attr autoWarmupFilter false
attr interpolationmode sample-hold
attr recordingmode vector
attr source "warmup(atomic(constant0(packetPushEnded) + sum(packetLength(packetPushStarted)) - sum(packetLength(packetPulled)) - sum(packetLength(packetRemoved)) - sum(packetLength(packetDropped))))"
attr title "queue bit length"
attr unit b
vector 81 CampusNetwork.internet.internalSwitch.eth[3].queue queueingTime:vector ETV
attr interpolationmode none
attr recordingmode vector
attr source queueingTime(packetPulled)
attr title "queueing times"
attr unit s
vector 82 CampusNetwork.internet.internalSwitch.eth[3].queue incomingPacketLengths:vector ETV
attr interpolationmode none
attr recordingmode vector
attr source packetLength(packetPushStarted)
attr title "incoming packet lengths"
attr unit b
vector 83 CampusNetwork.internet.internalSwitch.eth[3].queue incomingDataRate:vector ETV
attr interpolationmode linear
attr recordingmode vector
attr source throughput(packetPushStarted)
attr title "incoming datarate"
attr unit bps
vector 84 CampusNetwork.internet.internalSwitch.eth[3].queue outgoingPacketLengths:vector ETV
attr interpolationmode none
attr recordingmode vector
attr source packetLength(packetPulled)
attr title "outgoing packet lengths"
attr unit b
vector 85 CampusNetwork.internet.internalSwitch.eth[3].queue outgoingDataRate:vector ETV
attr interpolationmode linear
attr recordingmode vector
attr source throughput(packetPulled)
attr title "outgoing datarate"
attr unit bps
vector 86 CampusNetwork.internet.internalSwitch.eth[3].queue droppedPacketLengthsQueueOverflow:vector ETV
attr interpolationmode none
attr recordingmode vector
attr source packetLength(packetDropReasonIsQueueOverflow(packetDropped))
attr title "dropped packet lengths: queue overflow"
attr unit b
vector 87 CampusNetwork.internet.internalSwitch.eth[3].queue flowQueueingTime:vector ETV
attr interpolationmode none
attr recordingmode vector
attr source queueingTime(demuxFlow(packetPulled))
attr title "flow queueing times"
attr unit s
vector 88 CampusNetwork.internet.internalSwitch.eth[3].queue flowIncomingDataRate:vector ETV
attr interpolationmode linear
attr recordingmode vector
attr source throughput(flowPacketLength(demuxFlow(packetPushStarted)))
attr title "flow specific incoming data rate"
attr unit bps
vector 89 CampusNetwork.internet.internalSwitch.eth[3].queue flowOutgoingDataRate:vector ETV
attr interpolationmode linear
attr recordingmode vector
attr source throughput(flowPacketLength(demuxFlow(packetPulled)))
attr title "flow specific outgoing data rate"
attr unit bps
vector 90 CampusNetwork.internet.internalSwitch.eth[3].mac transmitting:vector ETV
attr interpolationmode sample-hold
attr recordingmode vector
attr source "count(transmissionStarted) - count(transmissionEnded)"
attr title "transmitting state"
attr type int
vector 91 CampusNetwork.internet.internalSwitch.eth[3].mac throughput:vector ETV
attr interpolationmode linear
attr recordingmode vector
attr source throughput(transmissionEnded)
attr title throughput
attr unit bps
vector 92 CampusNetwork.internet.internalSwitch.eth[3].mac utilization:vector ETV
attr interpolationmode linear
attr recordingmode vector
attr source "100 * utilization(count(transmissionStarted) - count(transmissionEnded))"
attr title utilization
attr unit %
vector 93 CampusNetwork.internet.internalSwitch.eth[3].mac txPk:vector(packetBytes) ETV
attr interpolationmode none
attr recordingmode vector(packetBytes)
attr source packetSentToLower
attr title "packets transmitted, packetBytes"
vector 94 CampusNetwork.internet.internalSwitch.eth[3].mac rxPkOk:vector(packetBytes) ETV
attr interpolationmode none
attr recordingmode vector(packetBytes)
attr source rxPkOk
attr title "packets received OK, packetBytes"
vector 95 CampusNetwork.internet.internalSwitch.eth[3].mac passedUpPk:vector(packetBytes) ETV
attr interpolationmode none
attr recordingmode vector(packetBytes)
attr source packetSentToUpper
attr title "packets passed to higher layer, packetBytes"
vector 96 CampusNetwork.internet.internalSwitch.eth[3].mac txPausePkUnits:vector ETV
attr interpolationmode none
attr recordingmode vector
attr title "pause units sent"
vector 97 CampusNetwork.internet.internalSwitch.eth[3].mac rxPausePkUnits:vector ETV
attr interpolationmode none
attr recordingmode vector
attr title "pause units received"
vector 98 CampusNetwork.internet.internalSwitch.eth[3].mac packetReceivedFromUpper:vector(packetBytes) ETV
attr interpolationmode none
attr recordingmode vector(packetBytes)
attr source packetReceivedFromUpper
attr title "packet bytes from higher layer, packetBytes"
vector 99 CampusNetwork.internet.internalSwitch.eth[3].mac packetDropIncorrectlyReceived:vector(packetBytes) ETV
attr interpolationmode none
attr recordingmode vector(packetBytes)
attr source packetDropReasonIsIncorrectlyReceived(packetDropped)
attr title "packet drop: incorrectly received, packetBytes"
vector 100 CampusNetwork.internet.internalSwitch.eth[3].mac packetDropInterfaceDown:vector(packetBytes) ETV
attr interpolationmode none
attr recordingmode vector(packetBytes)
attr source packetDropReasonIsInterfaceDown(packetDropped)
attr title "packet drop: interface down, packetBytes"
vector 101 CampusNetwork.internet.internalSwitch.eth[3].mac packetDropNotAddressedToUs:vector(packetBytes) ETV
attr interpolationmode none
attr recordingmode vector(packetBytes)
attr source packetDropReasonIsNotAddressedToUs(packetDropped)
attr title "packet drop: not addressed to us, packetBytes"
vector 102 CampusNetwork.internet.internalSwitch.eth[3] packetDropInterfaceDown:vector(packetBytes) ETV
attr interpolationmode none
attr recordingmode vector(packetBytes)
attr source packetDropReasonIsInterfaceDown(packetDropped)
attr title "packet drops: interface down, packetBytes"
vector 103 CampusNetwork.internet.internalSwitch.eth[3] packetDropNoCarrier:vector(packetBytes) ETV
attr interpolationmode none
attr recordingmode vector(packetBytes)
attr source packetDropReasonIsNoCarrier(packetDropped)
attr title "packet drops: no carrier, packetBytes"
vector 104 CampusNetwork.mainRouter.ethernet encapPk:vector(packetBytes) ETV
attr interpolationmode none
attr recordingmode vector(packetBytes)
attr source encapPk
attr title "packets encapsulated, packetBytes"
vector 105 CampusNetwork.mainRouter.ethernet decapPk:vector(packetBytes) ETV
attr interpolationmode none
attr recordingmode vector(packetBytes)
attr source decapPk
attr title "packets decapsulated, packetBytes"
vector 106 CampusNetwork.mainRouter.ethernet pauseSent:vector ETV
attr recordingmode vector
attr title "pause sent"
vector 107 CampusNetwork.mainRouter.lo[0].lo rcvdPkFromHl:vector(packetBytes) ETV
attr interpolationmode none
attr recordingmode vector(packetBytes)
attr source packetReceivedFromUpper
attr title "packets received from higher layer, packetBytes"
vector 108 CampusNetwork.mainRouter.lo[0].lo passedUpPk:vector(packetBytes) ETV
attr interpolationmode none
attr recordingmode vector(packetBytes)
attr source packetSentToUpper
attr title "packets passed to higher layer, packetBytes"
vector 109 CampusNetwork.mainRouter.lo[0] packetDropInterfaceDown:vector(packetBytes) ETV
attr interpolationmode none
attr recordingmode vector(packetBytes)
attr source packetDropReasonIsInterfaceDown(packetDropped)
attr title "packet drops: interface down, packetBytes"
vector 110 CampusNetwork.mainRouter.lo[0] packetDropNoCarrier:vector(packetBytes) ETV
attr interpolationmode none
attr recordingmode vector(packetBytes)
attr source packetDropReasonIsNoCarrier(packetDropped)
attr title "packet drops: no carrier, packetBytes"
vector 111 CampusNetwork.mainRouter.eth[0].queue queueLength:vector ETV
attr autoWarmupFilter false
attr interpolationmode sample-hold
attr recordingmode vector
attr source "warmup(atomic(constant0(packetPushEnded) + count(packetPushStarted) - count(packetPulled) - count(packetRemoved) - count(packetDropped)))"
attr title "queue length"
attr unit pk
vector 112 CampusNetwork.mainRouter.eth[0].queue queueBitLength:vector ETV
attr autoWarmupFilter false
attr interpolationmode sample-hold
attr recordingmode vector
attr source "warmup(atomic(constant0(packetPushEnded) + sum(packetLength(packetPushStarted)) - sum(packetLength(packetPulled)) - sum(packetLength(packetRemoved)) - sum(packetLength(packetDropped))))"
attr title "queue bit length"
attr unit b
vector 113 CampusNetwork.mainRouter.eth[0].queue queueingTime:vector ETV
attr interpolationmode none
attr recordingmode vector
attr source queueingTime(packetPulled)
attr title "queueing times"
attr unit s
vector 114 CampusNetwork.mainRouter.eth[0].queue incomingPacketLengths:vector ETV
attr interpolationmode none
attr recordingmode vector
attr source packetLength(packetPushStarted)
attr title "incoming packet lengths"
attr unit b
vector 115 CampusNetwork.mainRouter.eth[0].queue incomingDataRate:vector ETV
attr interpolationmode linear
attr recordingmode vector
attr source throughput(packetPushStarted)
attr title "incoming datarate"
attr unit bps
vector 116 CampusNetwork.mainRouter.eth[0].queue outgoingPacketLengths:vector ETV
attr interpolationmode none
attr recordingmode vector
attr source packetLength(packetPulled)
attr title "outgoing packet lengths"
attr unit b
vector 117 CampusNetwork.mainRouter.eth[0].queue outgoingDataRate:vector ETV
attr interpolationmode linear
attr recordingmode vector
attr source throughput(packetPulled)
attr title "outgoing datarate"
attr unit bps
vector 118 CampusNetwork.mainRouter.eth[0].queue droppedPacketLengthsQueueOverflow:vector ETV
attr interpolationmode none
attr recordingmode vector
attr source packetLength(packetDropReasonIsQueueOverflow(packetDropped))
attr title "dropped packet lengths: queue overflow"
attr unit b
vector 119 CampusNetwork.mainRouter.eth[0].queue flowQueueingTime:vector ETV
attr interpolationmode none
attr recordingmode vector
attr source queueingTime(demuxFlow(packetPulled))
attr title "flow queueing times"
attr unit s
vector 120 CampusNetwork.mainRouter.eth[0].queue flowIncomingDataRate:vector ETV
attr interpolationmode linear
attr recordingmode vector
attr source throughput(flowPacketLength(demuxFlow(packetPushStarted)))
attr title "flow specific incoming data rate"
attr unit bps
vector 121 CampusNetwork.mainRouter.eth[0].queue flowOutgoingDataRate:vector ETV
attr interpolationmode linear
attr recordingmode vector
attr source throughput(flowPacketLength(demuxFlow(packetPulled)))
attr title "flow specific outgoing data rate"
attr unit bps
vector 122 CampusNetwork.mainRouter.eth[0].mac transmitting:vector ETV
attr interpolationmode sample-hold
attr recordingmode vector
attr source "count(transmissionStarted) - count(transmissionEnded)"
attr title "transmitting state"
attr type int
vector 123 CampusNetwork.mainRouter.eth[0].mac throughput:vector ETV
attr interpolationmode linear
attr recordingmode vector
attr source throughput(transmissionEnded)
attr title throughput
attr unit bps
vector 124 CampusNetwork.mainRouter.eth[0].mac utilization:vector ETV
attr interpolationmode linear
attr recordingmode vector
attr source "100 * utilization(count(transmissionStarted) - count(transmissionEnded))"
attr title utilization
attr unit %
vector 125 CampusNetwork.mainRouter.eth[0].mac txPk:vector(packetBytes) ETV
attr interpolationmode none
attr recordingmode vector(packetBytes)
attr source packetSentToLower
attr title "packets transmitted, packetBytes"
vector 126 CampusNetwork.mainRouter.eth[0].mac rxPkOk:vector(packetBytes) ETV
attr interpolationmode none
attr recordingmode vector(packetBytes)
attr source rxPkOk
attr title "packets received OK, packetBytes"
vector 127 CampusNetwork.mainRouter.eth[0].mac passedUpPk:vector(packetBytes) ETV
attr interpolationmode none
attr recordingmode vector(packetBytes)
attr source packetSentToUpper
attr title "packets passed to higher layer, packetBytes"
vector 128 CampusNetwork.mainRouter.eth[0].mac txPausePkUnits:vector ETV
attr interpolationmode none
attr recordingmode vector
attr title "pause units sent"
vector 129 CampusNetwork.mainRouter.eth[0].mac rxPausePkUnits:vector ETV
attr interpolationmode none
attr recordingmode vector
attr title "pause units received"
vector 130 CampusNetwork.mainRouter.eth[0].mac packetReceivedFromUpper:vector(packetBytes) ETV
attr interpolationmode none
attr recordingmode vector(packetBytes)
attr source packetReceivedFromUpper
attr title "packet bytes from higher layer, packetBytes"
vector 131 CampusNetwork.mainRouter.eth[0].mac packetDropIncorrectlyReceived:vector(packetBytes) ETV
attr interpolationmode none
attr recordingmode vector(packetBytes)
attr source packetDropReasonIsIncorrectlyReceived(packetDropped)
attr title "packet drop: incorrectly received, packetBytes"
vector 132 CampusNetwork.mainRouter.eth[0].mac packetDropInterfaceDown:vector(packetBytes) ETV
attr interpolationmode none
attr recordingmode vector(packetBytes)
attr source packetDropReasonIsInterfaceDown(packetDropped)
attr title "packet drop: interface down, packetBytes"
vector 133 CampusNetwork.mainRouter.eth[0].mac packetDropNotAddressedToUs:vector(packetBytes) ETV
attr interpolationmode none
attr recordingmode vector(packetBytes)
attr source packetDropReasonIsNotAddressedToUs(packetDropped)
attr title "packet drop: not addressed to us, packetBytes"
vector 134 CampusNetwork.mainRouter.eth[0] packetDropInterfaceDown:vector(packetBytes) ETV
attr interpolationmode none
attr recordingmode vector(packetBytes)
attr source packetDropReasonIsInterfaceDown(packetDropped)
attr title "packet drops: interface down, packetBytes"
vector 135 CampusNetwork.mainRouter.eth[0] packetDropNoCarrier:vector(packetBytes) ETV
attr interpolationmode none
attr recordingmode vector(packetBytes)
attr source packetDropReasonIsNoCarrier(packetDropped)
attr title "packet drops: no carrier, packetBytes"
vector 136 CampusNetwork.mainRouter.eth[1].queue queueLength:vector ETV
attr autoWarmupFilter false
attr interpolationmode sample-hold
attr recordingmode vector
attr source "warmup(atomic(constant0(packetPushEnded) + count(packetPushStarted) - count(packetPulled) - count(packetRemoved) - count(packetDropped)))"
attr title "queue length"
attr unit pk
vector 137 CampusNetwork.mainRouter.eth[1].queue queueBitLength:vector ETV
attr autoWarmupFilter false
attr interpolationmode sample-hold
attr recordingmode vector
attr source "warmup(atomic(constant0(packetPushEnded) + sum(packetLength(packetPushStarted)) - sum(packetLength(packetPulled)) - sum(packetLength(packetRemoved)) - sum(packetLength(packetDropped))))"
attr title "queue bit length"
attr unit b
vector 138 CampusNetwork.mainRouter.eth[1].queue queueingTime:vector ETV
attr interpolationmode none
attr recordingmode vector
attr source queueingTime(packetPulled)
attr title "queueing times"
attr unit s
vector 139 CampusNetwork.mainRouter.eth[1].queue incomingPacketLengths:vector ETV
attr interpolationmode none
attr recordingmode vector
attr source packetLength(packetPushStarted)
attr title "incoming packet lengths"
attr unit b
vector 140 CampusNetwork.mainRouter.eth[1].queue incomingDataRate:vector ETV
attr interpolationmode linear
attr recordingmode vector
attr source throughput(packetPushStarted)
attr title "incoming datarate"
attr unit bps
vector 141 CampusNetwork.mainRouter.eth[1].queue outgoingPacketLengths:vector ETV
attr interpolationmode none
attr recordingmode vector
attr source packetLength(packetPulled)
attr title "outgoing packet lengths"
attr unit b
vector 142 CampusNetwork.mainRouter.eth[1].queue outgoingDataRate:vector ETV
attr interpolationmode linear
attr recordingmode vector
attr source throughput(packetPulled)
attr title "outgoing datarate"
attr unit bps
vector 143 CampusNetwork.mainRouter.eth[1].queue droppedPacketLengthsQueueOverflow:vector ETV
attr interpolationmode none
attr recordingmode vector
attr source packetLength(packetDropReasonIsQueueOverflow(packetDropped))
attr title "dropped packet lengths: queue overflow"
attr unit b
vector 144 CampusNetwork.mainRouter.eth[1].queue flowQueueingTime:vector ETV
attr interpolationmode none
attr recordingmode vector
attr source queueingTime(demuxFlow(packetPulled))
attr title "flow queueing times"
attr unit s
vector 145 CampusNetwork.mainRouter.eth[1].queue flowIncomingDataRate:vector ETV
attr interpolationmode linear
attr recordingmode vector
attr source throughput(flowPacketLength(demuxFlow(packetPushStarted)))
attr title "flow specific incoming data rate"
attr unit bps
vector 146 CampusNetwork.mainRouter.eth[1].queue flowOutgoingDataRate:vector ETV
attr interpolationmode linear
attr recordingmode vector
attr source throughput(flowPacketLength(demuxFlow(packetPulled)))
attr title "flow specific outgoing data rate"
attr unit bps
vector 147 CampusNetwork.mainRouter.eth[1].mac transmitting:vector ETV
attr interpolationmode sample-hold
attr recordingmode vector
attr source "count(transmissionStarted) - count(transmissionEnded)"
attr title "transmitting state"
attr type int
vector 148 CampusNetwork.mainRouter.eth[1].mac throughput:vector ETV
attr interpolationmode linear
attr recordingmode vector
attr source throughput(transmissionEnded)
attr title throughput
attr unit bps
vector 149 CampusNetwork.mainRouter.eth[1].mac utilization:vector ETV
attr interpolationmode linear
attr recordingmode vector
attr source "100 * utilization(count(transmissionStarted) - count(transmissionEnded))"
attr title utilization
attr unit %
vector 150 CampusNetwork.mainRouter.eth[1].mac txPk:vector(packetBytes) ETV
attr interpolationmode none
attr recordingmode vector(packetBytes)
attr source packetSentToLower
attr title "packets transmitted, packetBytes"
vector 151 CampusNetwork.mainRouter.eth[1].mac rxPkOk:vector(packetBytes) ETV
attr interpolationmode none
attr recordingmode vector(packetBytes)
attr source rxPkOk
attr title "packets received OK, packetBytes"
vector 152 CampusNetwork.mainRouter.eth[1].mac passedUpPk:vector(packetBytes) ETV
attr interpolationmode none
attr recordingmode vector(packetBytes)
attr source packetSentToUpper
attr title "packets passed to higher layer, packetBytes"
vector 153 CampusNetwork.mainRouter.eth[1].mac txPausePkUnits:vector ETV
attr interpolationmode none
attr recordingmode vector
attr title "pause units sent"
vector 154 CampusNetwork.mainRouter.eth[1].mac rxPausePkUnits:vector ETV
attr interpolationmode none
attr recordingmode vector
attr title "pause units received"
vector 155 CampusNetwork.mainRouter.eth[1].mac packetReceivedFromUpper:vector(packetBytes) ETV
attr interpolationmode none
attr recordingmode vector(packetBytes)
attr source packetReceivedFromUpper
attr title "packet bytes from higher layer, packetBytes"
vector 156 CampusNetwork.mainRouter.eth[1].mac packetDropIncorrectlyReceived:vector(packetBytes) ETV
attr interpolationmode none
attr recordingmode vector(packetBytes)
attr source packetDropReasonIsIncorrectlyReceived(packetDropped)
attr title "packet drop: incorrectly received, packetBytes"
vector 157 CampusNetwork.mainRouter.eth[1].mac packetDropInterfaceDown:vector(packetBytes) ETV
attr interpolationmode none
attr recordingmode vector(packetBytes)
attr source packetDropReasonIsInterfaceDown(packetDropped)
attr title "packet drop: interface down, packetBytes"
vector 158 CampusNetwork.mainRouter.eth[1].mac packetDropNotAddressedToUs:vector(packetBytes) ETV
attr interpolationmode none
attr recordingmode vector(packetBytes)
attr source packetDropReasonIsNotAddressedToUs(packetDropped)
attr title "packet drop: not addressed to us, packetBytes"
vector 159 CampusNetwork.mainRouter.eth[1] packetDropInterfaceDown:vector(packetBytes) ETV
attr interpolationmode none
attr recordingmode vector(packetBytes)
attr source packetDropReasonIsInterfaceDown(packetDropped)
attr title "packet drops: interface down, packetBytes"
vector 160 CampusNetwork.mainRouter.eth[1] packetDropNoCarrier:vector(packetBytes) ETV
attr interpolationmode none
attr recordingmode vector(packetBytes)
attr source packetDropReasonIsNoCarrier(packetDropped)
attr title "packet drops: no carrier, packetBytes"
vector 161 CampusNetwork.mainRouter.ipv4.ip packetDropAddressResolutionFailed:vector(packetBytes) ETV
attr interpolationmode none
attr recordingmode vector(packetBytes)
attr source packetDropReasonIsAddressResolutionFailed(packetDropped)
attr title "packet drop: address resolution failed, packetBytes"
vector 162 CampusNetwork.mainRouter.ipv4.ip packetDropHopLimitReached:vector(packetBytes) ETV
attr interpolationmode none
attr recordingmode vector(packetBytes)
attr source packetDropReasonIsHopLimitReached(packetDropped)
attr title "packet drop: hop limit reached, packetBytes"
vector 163 CampusNetwork.mainRouter.ipv4.ip packetDropForwardingDisabled:vector(packetBytes) ETV
attr interpolationmode none
attr recordingmode vector(packetBytes)
attr source packetDropReasonIsForwardingDisabled(packetDropped)
attr title "packet drop: forwarding disabled, packetBytes"
vector 164 CampusNetwork.mainRouter.ipv4.ip packetDropLifetimeExpired:vector(packetBytes) ETV
attr interpolationmode none
attr recordingmode vector(packetBytes)
attr source packetDropReasonIsLifetimeExpired(packetDropped)
attr title "packet drop: lifetime expired, packetBytes"
vector 165 CampusNetwork.mainRouter.ipv4.ip packetDropNoInterfaceFound:vector(packetBytes) ETV
attr interpolationmode none
attr recordingmode vector(packetBytes)
attr source packetDropReasonIsNoInterfaceFound(packetDropped)
attr title "packet drop: no interface found, packetBytes"
vector 166 CampusNetwork.mainRouter.ipv4.ip packetDropNoRouteFound:vector(packetBytes) ETV
attr interpolationmode none
attr recordingmode vector(packetBytes)
attr source packetDropReasonIsNoRouteFound(packetDropped)
attr title "packet drop: no route found, packetBytes"
vector 167 CampusNetwork.mainRouter.ipv4.ip packetDropUndefined:vector(packetBytes) ETV
attr interpolationmode none
attr recordingmode vector(packetBytes)
attr source packetDropReasonIsUndefined(packetDropped)
attr title "packet drop: undefined, packetBytes"
vector 168 CampusNetwork.mainRouter.ipv4.arp arpRequestSent:vector(packetBytes) ETV
attr recordingmode vector(packetBytes)
attr source arpRequestSent
attr title "ARP request sent, packetBytes"
vector 169 CampusNetwork.mainRouter.ipv4.arp arpReplySent:vector(packetBytes) ETV
attr recordingmode vector(packetBytes)
attr source arpReplySent
attr title "ARP replies sent, packetBytes"
vector 170 CampusNetwork.backupRouter.ethernet encapPk:vector(packetBytes) ETV
attr interpolationmode none
attr recordingmode vector(packetBytes)
attr source encapPk
attr title "packets encapsulated, packetBytes"
vector 171 CampusNetwork.backupRouter.ethernet decapPk:vector(packetBytes) ETV
attr interpolationmode none
attr recordingmode vector(packetBytes)
attr source decapPk
attr title "packets decapsulated, packetBytes"
vector 172 CampusNetwork.backupRouter.ethernet pauseSent:vector ETV
attr recordingmode vector
attr title "pause sent"
vector 173 CampusNetwork.backupRouter.lo[0].lo rcvdPkFromHl:vector(packetBytes) ETV
attr interpolationmode none
attr recordingmode vector(packetBytes)
attr source packetReceivedFromUpper
attr title "packets received from higher layer, packetBytes"
vector 174 CampusNetwork.backupRouter.lo[0].lo passedUpPk:vector(packetBytes) ETV
attr interpolationmode none
attr recordingmode vector(packetBytes)
attr source packetSentToUpper
attr title "packets passed to higher layer, packetBytes"
vector 175 CampusNetwork.backupRouter.lo[0] packetDropInterfaceDown:vector(packetBytes) ETV
attr interpolationmode none
attr recordingmode vector(packetBytes)
attr source packetDropReasonIsInterfaceDown(packetDropped)
attr title "packet drops: interface down, packetBytes"
vector 176 CampusNetwork.backupRouter.lo[0] packetDropNoCarrier:vector(packetBytes) ETV
attr interpolationmode none
attr recordingmode vector(packetBytes)
attr source packetDropReasonIsNoCarrier(packetDropped)
attr title "packet drops: no carrier, packetBytes"
vector 177 CampusNetwork.backupRouter.eth[0].queue queueLength:vector ETV
attr autoWarmupFilter false
attr interpolationmode sample-hold
attr recordingmode vector
attr source "warmup(atomic(constant0(packetPushEnded) + count(packetPushStarted) - count(packetPulled) - count(packetRemoved) - count(packetDropped)))"
attr title "queue length"
attr unit pk
vector 178 CampusNetwork.backupRouter.eth[0].queue queueBitLength:vector ETV
attr autoWarmupFilter false
attr interpolationmode sample-hold
attr recordingmode vector
attr source "warmup(atomic(constant0(packetPushEnded) + sum(packetLength(packetPushStarted)) - sum(packetLength(packetPulled)) - sum(packetLength(packetRemoved)) - sum(packetLength(packetDropped))))"
attr title "queue bit length"
attr unit b
vector 179 CampusNetwork.backupRouter.eth[0].queue queueingTime:vector ETV
attr interpolationmode none
attr recordingmode vector
attr source queueingTime(packetPulled)
attr title "queueing times"
attr unit s
vector 180 CampusNetwork.backupRouter.eth[0].queue incomingPacketLengths:vector ETV
attr interpolationmode none
attr recordingmode vector
attr source packetLength(packetPushStarted)
attr title "incoming packet lengths"
attr unit b
vector 181 CampusNetwork.backupRouter.eth[0].queue incomingDataRate:vector ETV
attr interpolationmode linear
attr recordingmode vector
attr source throughput(packetPushStarted)
attr title "incoming datarate"
attr unit bps
vector 182 CampusNetwork.backupRouter.eth[0].queue outgoingPacketLengths:vector ETV
attr interpolationmode none
attr recordingmode vector
attr source packetLength(packetPulled)
attr title "outgoing packet lengths"
attr unit b
vector 183 CampusNetwork.backupRouter.eth[0].queue outgoingDataRate:vector ETV
attr interpolationmode linear
attr recordingmode vector
attr source throughput(packetPulled)
attr title "outgoing datarate"
attr unit bps
vector 184 CampusNetwork.backupRouter.eth[0].queue droppedPacketLengthsQueueOverflow:vector ETV
attr interpolationmode none
attr recordingmode vector
attr source packetLength(packetDropReasonIsQueueOverflow(packetDropped))
attr title "dropped packet lengths: queue overflow"
attr unit b
vector 185 CampusNetwork.backupRouter.eth[0].queue flowQueueingTime:vector ETV
attr interpolationmode none
attr recordingmode vector
attr source queueingTime(demuxFlow(packetPulled))
attr title "flow queueing times"
attr unit s
vector 186 CampusNetwork.backupRouter.eth[0].queue flowIncomingDataRate:vector ETV
attr interpolationmode linear
attr recordingmode vector
attr source throughput(flowPacketLength(demuxFlow(packetPushStarted)))
attr title "flow specific incoming data rate"
attr unit bps
vector 187 CampusNetwork.backupRouter.eth[0].queue flowOutgoingDataRate:vector ETV
attr interpolationmode linear
attr recordingmode vector
attr source throughput(flowPacketLength(demuxFlow(packetPulled)))
attr title "flow specific outgoing data rate"
attr unit bps
vector 188 CampusNetwork.backupRouter.eth[0].mac transmitting:vector ETV
attr interpolationmode sample-hold
attr recordingmode vector
attr source "count(transmissionStarted) - count(transmissionEnded)"
attr title "transmitting state"
attr type int
vector 189 CampusNetwork.backupRouter.eth[0].mac throughput:vector ETV
attr interpolationmode linear
attr recordingmode vector
attr source throughput(transmissionEnded)
attr title throughput
attr unit bps
vector 190 CampusNetwork.backupRouter.eth[0].mac utilization:vector ETV
attr interpolationmode linear
attr recordingmode vector
attr source "100 * utilization(count(transmissionStarted) - count(transmissionEnded))"
attr title utilization
attr unit %
vector 191 CampusNetwork.backupRouter.eth[0].mac txPk:vector(packetBytes) ETV
attr interpolationmode none
attr recordingmode vector(packetBytes)
attr source packetSentToLower
attr title "packets transmitted, packetBytes"
vector 192 CampusNetwork.backupRouter.eth[0].mac rxPkOk:vector(packetBytes) ETV
attr interpolationmode none
attr recordingmode vector(packetBytes)
attr source rxPkOk
attr title "packets received OK, packetBytes"
vector 193 CampusNetwork.backupRouter.eth[0].mac passedUpPk:vector(packetBytes) ETV
attr interpolationmode none
attr recordingmode vector(packetBytes)
attr source packetSentToUpper
attr title "packets passed to higher layer, packetBytes"
vector 194 CampusNetwork.backupRouter.eth[0].mac txPausePkUnits:vector ETV
attr interpolationmode none
attr recordingmode vector
attr title "pause units sent"
vector 195 CampusNetwork.backupRouter.eth[0].mac rxPausePkUnits:vector ETV
attr interpolationmode none
attr recordingmode vector
attr title "pause units received"
vector 196 CampusNetwork.backupRouter.eth[0].mac packetReceivedFromUpper:vector(packetBytes) ETV
attr interpolationmode none
attr recordingmode vector(packetBytes)
attr source packetReceivedFromUpper
attr title "packet bytes from higher layer, packetBytes"
vector 197 CampusNetwork.backupRouter.eth[0].mac packetDropIncorrectlyReceived:vector(packetBytes) ETV
attr interpolationmode none
attr recordingmode vector(packetBytes)
attr source packetDropReasonIsIncorrectlyReceived(packetDropped)
attr title "packet drop: incorrectly received, packetBytes"
vector 198 CampusNetwork.backupRouter.eth[0].mac packetDropInterfaceDown:vector(packetBytes) ETV
attr interpolationmode none
attr recordingmode vector(packetBytes)
attr source packetDropReasonIsInterfaceDown(packetDropped)
attr title "packet drop: interface down, packetBytes"
vector 199 CampusNetwork.backupRouter.eth[0].mac packetDropNotAddressedToUs:vector(packetBytes) ETV
attr interpolationmode none
attr recordingmode vector(packetBytes)
attr source packetDropReasonIsNotAddressedToUs(packetDropped)
attr title "packet drop: not addressed to us, packetBytes"
vector 200 CampusNetwork.backupRouter.eth[0] packetDropInterfaceDown:vector(packetBytes) ETV
attr interpolationmode none
attr recordingmode vector(packetBytes)
attr source packetDropReasonIsInterfaceDown(packetDropped)
attr title "packet drops: interface down, packetBytes"
vector 201 CampusNetwork.backupRouter.eth[0] packetDropNoCarrier:vector(packetBytes) ETV
attr interpolationmode none
attr recordingmode vector(packetBytes)
attr source packetDropReasonIsNoCarrier(packetDropped)
attr title "packet drops: no carrier, packetBytes"
vector 202 CampusNetwork.backupRouter.eth[1].queue queueLength:vector ETV
attr autoWarmupFilter false
attr interpolationmode sample-hold
attr recordingmode vector
attr source "warmup(atomic(constant0(packetPushEnded) + count(packetPushStarted) - count(packetPulled) - count(packetRemoved) - count(packetDropped)))"
attr title "queue length"
attr unit pk
vector 203 CampusNetwork.backupRouter.eth[1].queue queueBitLength:vector ETV
attr autoWarmupFilter false
attr interpolationmode sample-hold
attr recordingmode vector
attr source "warmup(atomic(constant0(packetPushEnded) + sum(packetLength(packetPushStarted)) - sum(packetLength(packetPulled)) - sum(packetLength(packetRemoved)) - sum(packetLength(packetDropped))))"
attr title "queue bit length"
attr unit b
vector 204 CampusNetwork.backupRouter.eth[1].queue queueingTime:vector ETV
attr interpolationmode none
attr recordingmode vector
attr source queueingTime(packetPulled)
attr title "queueing times"
attr unit s
vector 205 CampusNetwork.backupRouter.eth[1].queue incomingPacketLengths:vector ETV
attr interpolationmode none
attr recordingmode vector
attr source packetLength(packetPushStarted)
attr title "incoming packet lengths"
attr unit b
vector 206 CampusNetwork.backupRouter.eth[1].queue incomingDataRate:vector ETV
attr interpolationmode linear
attr recordingmode vector
attr source throughput(packetPushStarted)
attr title "incoming datarate"
attr unit bps
vector 207 CampusNetwork.backupRouter.eth[1].queue outgoingPacketLengths:vector ETV
attr interpolationmode none
attr recordingmode vector
attr source packetLength(packetPulled)
attr title "outgoing packet lengths"
attr unit b
vector 208 CampusNetwork.backupRouter.eth[1].queue outgoingDataRate:vector ETV
attr interpolationmode linear
attr recordingmode vector
attr source throughput(packetPulled)
attr title "outgoing datarate"
attr unit bps
vector 209 CampusNetwork.backupRouter.eth[1].queue droppedPacketLengthsQueueOverflow:vector ETV
attr interpolationmode none
attr recordingmode vector
attr source packetLength(packetDropReasonIsQueueOverflow(packetDropped))
attr title "dropped packet lengths: queue overflow"
attr unit b
vector 210 CampusNetwork.backupRouter.eth[1].queue flowQueueingTime:vector ETV
attr interpolationmode none
attr recordingmode vector
attr source queueingTime(demuxFlow(packetPulled))
attr title "flow queueing times"
attr unit s
vector 211 CampusNetwork.backupRouter.eth[1].queue flowIncomingDataRate:vector ETV
attr interpolationmode linear
attr recordingmode vector
attr source throughput(flowPacketLength(demuxFlow(packetPushStarted)))
attr title "flow specific incoming data rate"
attr unit bps
vector 212 CampusNetwork.backupRouter.eth[1].queue flowOutgoingDataRate:vector ETV
attr interpolationmode linear
attr recordingmode vector
attr source throughput(flowPacketLength(demuxFlow(packetPulled)))
attr title "flow specific outgoing data rate"
attr unit bps
vector 213 CampusNetwork.backupRouter.eth[1].mac transmitting:vector ETV
attr interpolationmode sample-hold
attr recordingmode vector
attr source "count(transmissionStarted) - count(transmissionEnded)"
attr title "transmitting state"
attr type int
vector 214 CampusNetwork.backupRouter.eth[1].mac throughput:vector ETV
attr interpolationmode linear
attr recordingmode vector
attr source throughput(transmissionEnded)
attr title throughput
attr unit bps
vector 215 CampusNetwork.backupRouter.eth[1].mac utilization:vector ETV
attr interpolationmode linear
attr recordingmode vector
attr source "100 * utilization(count(transmissionStarted) - count(transmissionEnded))"
attr title utilization
attr unit %
vector 216 CampusNetwork.backupRouter.eth[1].mac txPk:vector(packetBytes) ETV
attr interpolationmode none
attr recordingmode vector(packetBytes)
attr source packetSentToLower
attr title "packets transmitted, packetBytes"
vector 217 CampusNetwork.backupRouter.eth[1].mac rxPkOk:vector(packetBytes) ETV
attr interpolationmode none
attr recordingmode vector(packetBytes)
attr source rxPkOk
attr title "packets received OK, packetBytes"
vector 218 CampusNetwork.backupRouter.eth[1].mac passedUpPk:vector(packetBytes) ETV
attr interpolationmode none
attr recordingmode vector(packetBytes)
attr source packetSentToUpper
attr title "packets passed to higher layer, packetBytes"
vector 219 CampusNetwork.backupRouter.eth[1].mac txPausePkUnits:vector ETV
attr interpolationmode none
attr recordingmode vector
attr title "pause units sent"
vector 220 CampusNetwork.backupRouter.eth[1].mac rxPausePkUnits:vector ETV
attr interpolationmode none
attr recordingmode vector
attr title "pause units received"
vector 221 CampusNetwork.backupRouter.eth[1].mac packetReceivedFromUpper:vector(packetBytes) ETV
attr interpolationmode none
attr recordingmode vector(packetBytes)
attr source packetReceivedFromUpper
attr title "packet bytes from higher layer, packetBytes"
vector 222 CampusNetwork.backupRouter.eth[1].mac packetDropIncorrectlyReceived:vector(packetBytes) ETV
attr interpolationmode none
attr recordingmode vector(packetBytes)
attr source packetDropReasonIsIncorrectlyReceived(packetDropped)
attr title "packet drop: incorrectly received, packetBytes"
vector 223 CampusNetwork.backupRouter.eth[1].mac packetDropInterfaceDown:vector(packetBytes) ETV
attr interpolationmode none
attr recordingmode vector(packetBytes)
attr source packetDropReasonIsInterfaceDown(packetDropped)
attr title "packet drop: interface down, packetBytes"
vector 224 CampusNetwork.backupRouter.eth[1].mac packetDropNotAddressedToUs:vector(packetBytes) ETV
attr interpolationmode none
attr recordingmode vector(packetBytes)
attr source packetDropReasonIsNotAddressedToUs(packetDropped)
attr title "packet drop: not addressed to us, packetBytes"
vector 225 CampusNetwork.backupRouter.eth[1] packetDropInterfaceDown:vector(packetBytes) ETV
attr interpolationmode none
attr recordingmode vector(packetBytes)
attr source packetDropReasonIsInterfaceDown(packetDropped)
attr title "packet drops: interface down, packetBytes"
vector 226 CampusNetwork.backupRouter.eth[1] packetDropNoCarrier:vector(packetBytes) ETV
attr interpolationmode none
attr recordingmode vector(packetBytes)
attr source packetDropReasonIsNoCarrier(packetDropped)
attr title "packet drops: no carrier, packetBytes"
vector 227 CampusNetwork.backupRouter.ipv4.ip packetDropAddressResolutionFailed:vector(packetBytes) ETV
attr interpolationmode none
attr recordingmode vector(packetBytes)
attr source packetDropReasonIsAddressResolutionFailed(packetDropped)
attr title "packet drop: address resolution failed, packetBytes"
vector 228 CampusNetwork.backupRouter.ipv4.ip packetDropHopLimitReached:vector(packetBytes) ETV
attr interpolationmode none
attr recordingmode vector(packetBytes)
attr source packetDropReasonIsHopLimitReached(packetDropped)
attr title "packet drop: hop limit reached, packetBytes"
vector 229 CampusNetwork.backupRouter.ipv4.ip packetDropForwardingDisabled:vector(packetBytes) ETV
attr interpolationmode none
attr recordingmode vector(packetBytes)
attr source packetDropReasonIsForwardingDisabled(packetDropped)
attr title "packet drop: forwarding disabled, packetBytes"
vector 230 CampusNetwork.backupRouter.ipv4.ip packetDropLifetimeExpired:vector(packetBytes) ETV
attr interpolationmode none
attr recordingmode vector(packetBytes)
attr source packetDropReasonIsLifetimeExpired(packetDropped)
attr title "packet drop: lifetime expired, packetBytes"
vector 231 CampusNetwork.backupRouter.ipv4.ip packetDropNoInterfaceFound:vector(packetBytes) ETV
attr interpolationmode none
attr recordingmode vector(packetBytes)
attr source packetDropReasonIsNoInterfaceFound(packetDropped)
attr title "packet drop: no interface found, packetBytes"
vector 232 CampusNetwork.backupRouter.ipv4.ip packetDropNoRouteFound:vector(packetBytes) ETV
attr interpolationmode none
attr recordingmode vector(packetBytes)
attr source packetDropReasonIsNoRouteFound(packetDropped)
attr title "packet drop: no route found, packetBytes"
vector 233 CampusNetwork.backupRouter.ipv4.ip packetDropUndefined:vector(packetBytes) ETV
attr interpolationmode none
attr recordingmode vector(packetBytes)
attr source packetDropReasonIsUndefined(packetDropped)
attr title "packet drop: undefined, packetBytes"
vector 234 CampusNetwork.backupRouter.ipv4.arp arpRequestSent:vector(packetBytes) ETV
attr recordingmode vector(packetBytes)
attr source arpRequestSent
attr title "ARP request sent, packetBytes"
vector 235 CampusNetwork.backupRouter.ipv4.arp arpReplySent:vector(packetBytes) ETV
attr recordingmode vector(packetBytes)
attr source arpReplySent
attr title "ARP replies sent, packetBytes"
vector 236 CampusNetwork.mainSwitch.bridging packetDropped:vector(packetBytes) ETV
attr interpolationmode none
attr recordingmode vector(packetBytes)
attr title "packets dropped, packetBytes"
vector 237 CampusNetwork.mainSwitch.ethernet encapPk:vector(packetBytes) ETV
attr interpolationmode none
attr recordingmode vector(packetBytes)
attr source encapPk
attr title "packets encapsulated, packetBytes"
vector 238 CampusNetwork.mainSwitch.ethernet decapPk:vector(packetBytes) ETV
attr interpolationmode none
attr recordingmode vector(packetBytes)
attr source decapPk
attr title "packets decapsulated, packetBytes"
vector 239 CampusNetwork.mainSwitch.ethernet pauseSent:vector ETV
attr recordingmode vector
attr title "pause sent"
vector 240 CampusNetwork.mainSwitch.eth[0].queue queueLength:vector ETV
attr autoWarmupFilter false
attr interpolationmode sample-hold
attr recordingmode vector
attr source "warmup(atomic(constant0(packetPushEnded) + count(packetPushStarted) - count(packetPulled) - count(packetRemoved) - count(packetDropped)))"
attr title "queue length"
attr unit pk
vector 241 CampusNetwork.mainSwitch.eth[0].queue queueBitLength:vector ETV
attr autoWarmupFilter false
attr interpolationmode sample-hold
attr recordingmode vector
attr source "warmup(atomic(constant0(packetPushEnded) + sum(packetLength(packetPushStarted)) - sum(packetLength(packetPulled)) - sum(packetLength(packetRemoved)) - sum(packetLength(packetDropped))))"
attr title "queue bit length"
attr unit b
vector 242 CampusNetwork.mainSwitch.eth[0].queue queueingTime:vector ETV
attr interpolationmode none
attr recordingmode vector
attr source queueingTime(packetPulled)
attr title "queueing times"
attr unit s
vector 243 CampusNetwork.mainSwitch.eth[0].queue incomingPacketLengths:vector ETV
attr interpolationmode none
attr recordingmode vector
attr source packetLength(packetPushStarted)
attr title "incoming packet lengths"
attr unit b
vector 244 CampusNetwork.mainSwitch.eth[0].queue incomingDataRate:vector ETV
attr interpolationmode linear
attr recordingmode vector
attr source throughput(packetPushStarted)
attr title "incoming datarate"
attr unit bps
vector 245 CampusNetwork.mainSwitch.eth[0].queue outgoingPacketLengths:vector ETV
attr interpolationmode none
attr recordingmode vector
attr source packetLength(packetPulled)
attr title "outgoing packet lengths"
attr unit b
vector 246 CampusNetwork.mainSwitch.eth[0].queue outgoingDataRate:vector ETV
attr interpolationmode linear
attr recordingmode vector
attr source throughput(packetPulled)
attr title "outgoing datarate"
attr unit bps
vector 247 CampusNetwork.mainSwitch.eth[0].queue droppedPacketLengthsQueueOverflow:vector ETV
attr interpolationmode none
attr recordingmode vector
attr source packetLength(packetDropReasonIsQueueOverflow(packetDropped))
attr title "dropped packet lengths: queue overflow"
attr unit b
vector 248 CampusNetwork.mainSwitch.eth[0].queue flowQueueingTime:vector ETV
attr interpolationmode none
attr recordingmode vector
attr source queueingTime(demuxFlow(packetPulled))
attr title "flow queueing times"
attr unit s
vector 249 CampusNetwork.mainSwitch.eth[0].queue flowIncomingDataRate:vector ETV
attr interpolationmode linear
attr recordingmode vector
attr source throughput(flowPacketLength(demuxFlow(packetPushStarted)))
attr title "flow specific incoming data rate"
attr unit bps
vector 250 CampusNetwork.mainSwitch.eth[0].queue flowOutgoingDataRate:vector ETV
attr interpolationmode linear
attr recordingmode vector
attr source throughput(flowPacketLength(demuxFlow(packetPulled)))
attr title "flow specific outgoing data rate"
attr unit bps
vector 251 CampusNetwork.mainSwitch.eth[0].mac transmitting:vector ETV
attr interpolationmode sample-hold
attr recordingmode vector
attr source "count(transmissionStarted) - count(transmissionEnded)"
attr title "transmitting state"
attr type int
vector 252 CampusNetwork.mainSwitch.eth[0].mac throughput:vector ETV
attr interpolationmode linear
attr recordingmode vector
attr source throughput(transmissionEnded)
attr title throughput
attr unit bps
vector 253 CampusNetwork.mainSwitch.eth[0].mac utilization:vector ETV
attr interpolationmode linear
attr recordingmode vector
attr source "100 * utilization(count(transmissionStarted) - count(transmissionEnded))"
attr title utilization
attr unit %
vector 254 CampusNetwork.mainSwitch.eth[0].mac txPk:vector(packetBytes) ETV
attr interpolationmode none
attr recordingmode vector(packetBytes)
attr source packetSentToLower
attr title "packets transmitted, packetBytes"
vector 255 CampusNetwork.mainSwitch.eth[0].mac rxPkOk:vector(packetBytes) ETV
attr interpolationmode none
attr recordingmode vector(packetBytes)
attr source rxPkOk
attr title "packets received OK, packetBytes"
vector 256 CampusNetwork.mainSwitch.eth[0].mac passedUpPk:vector(packetBytes) ETV
attr interpolationmode none
attr recordingmode vector(packetBytes)
attr source packetSentToUpper
attr title "packets passed to higher layer, packetBytes"
vector 257 CampusNetwork.mainSwitch.eth[0].mac txPausePkUnits:vector ETV
attr interpolationmode none
attr recordingmode vector
attr title "pause units sent"
vector 258 CampusNetwork.mainSwitch.eth[0].mac rxPausePkUnits:vector ETV
attr interpolationmode none
attr recordingmode vector
attr title "pause units received"
vector 259 CampusNetwork.mainSwitch.eth[0].mac packetReceivedFromUpper:vector(packetBytes) ETV
attr interpolationmode none
attr recordingmode vector(packetBytes)
attr source packetReceivedFromUpper
attr title "packet bytes from higher layer, packetBytes"
vector 260 CampusNetwork.mainSwitch.eth[0].mac packetDropIncorrectlyReceived:vector(packetBytes) ETV
attr interpolationmode none
attr recordingmode vector(packetBytes)
attr source packetDropReasonIsIncorrectlyReceived(packetDropped)
attr title "packet drop: incorrectly received, packetBytes"
vector 261 CampusNetwork.mainSwitch.eth[0].mac packetDropInterfaceDown:vector(packetBytes) ETV
attr interpolationmode none
attr recordingmode vector(packetBytes)
attr source packetDropReasonIsInterfaceDown(packetDropped)
attr title "packet drop: interface down, packetBytes"
vector 262 CampusNetwork.mainSwitch.eth[0].mac packetDropNotAddressedToUs:vector(packetBytes) ETV
attr interpolationmode none
attr recordingmode vector(packetBytes)
attr source packetDropReasonIsNotAddressedToUs(packetDropped)
attr title "packet drop: not addressed to us, packetBytes"
vector 263 CampusNetwork.mainSwitch.eth[0] packetDropInterfaceDown:vector(packetBytes) ETV
attr interpolationmode none
attr recordingmode vector(packetBytes)
attr source packetDropReasonIsInterfaceDown(packetDropped)
attr title "packet drops: interface down, packetBytes"
vector 264 CampusNetwork.mainSwitch.eth[0] packetDropNoCarrier:vector(packetBytes) ETV
attr interpolationmode none
attr recordingmode vector(packetBytes)
attr source packetDropReasonIsNoCarrier(packetDropped)
attr title "packet drops: no carrier, packetBytes"
vector 265 CampusNetwork.mainSwitch.eth[1].queue queueLength:vector ETV
attr autoWarmupFilter false
attr interpolationmode sample-hold
attr recordingmode vector
attr source "warmup(atomic(constant0(packetPushEnded) + count(packetPushStarted) - count(packetPulled) - count(packetRemoved) - count(packetDropped)))"
attr title "queue length"
attr unit pk
vector 266 CampusNetwork.mainSwitch.eth[1].queue queueBitLength:vector ETV
attr autoWarmupFilter false
attr interpolationmode sample-hold
attr recordingmode vector
attr source "warmup(atomic(constant0(packetPushEnded) + sum(packetLength(packetPushStarted)) - sum(packetLength(packetPulled)) - sum(packetLength(packetRemoved)) - sum(packetLength(packetDropped))))"
attr title "queue bit length"
attr unit b
vector 267 CampusNetwork.mainSwitch.eth[1].queue queueingTime:vector ETV
attr interpolationmode none
attr recordingmode vector
attr source queueingTime(packetPulled)
attr title "queueing times"
attr unit s
vector 268 CampusNetwork.mainSwitch.eth[1].queue incomingPacketLengths:vector ETV
attr interpolationmode none
attr recordingmode vector
attr source packetLength(packetPushStarted)
attr title "incoming packet lengths"
attr unit b
vector 269 CampusNetwork.mainSwitch.eth[1].queue incomingDataRate:vector ETV
attr interpolationmode linear
attr recordingmode vector
attr source throughput(packetPushStarted)
attr title "incoming datarate"
attr unit bps
vector 270 CampusNetwork.mainSwitch.eth[1].queue outgoingPacketLengths:vector ETV
attr interpolationmode none
attr recordingmode vector
attr source packetLength(packetPulled)
attr title "outgoing packet lengths"
attr unit b
vector 271 CampusNetwork.mainSwitch.eth[1].queue outgoingDataRate:vector ETV
attr interpolationmode linear
attr recordingmode vector
attr source throughput(packetPulled)
attr title "outgoing datarate"
attr unit bps
vector 272 CampusNetwork.mainSwitch.eth[1].queue droppedPacketLengthsQueueOverflow:vector ETV
attr interpolationmode none
attr recordingmode vector
attr source packetLength(packetDropReasonIsQueueOverflow(packetDropped))
attr title "dropped packet lengths: queue overflow"
attr unit b
vector 273 CampusNetwork.mainSwitch.eth[1].queue flowQueueingTime:vector ETV
attr interpolationmode none
attr recordingmode vector
attr source queueingTime(demuxFlow(packetPulled))
attr title "flow queueing times"
attr unit s
vector 274 CampusNetwork.mainSwitch.eth[1].queue flowIncomingDataRate:vector ETV
attr interpolationmode linear
attr recordingmode vector
attr source throughput(flowPacketLength(demuxFlow(packetPushStarted)))
attr title "flow specific incoming data rate"
attr unit bps
vector 275 CampusNetwork.mainSwitch.eth[1].queue flowOutgoingDataRate:vector ETV
attr interpolationmode linear
attr recordingmode vector
attr source throughput(flowPacketLength(demuxFlow(packetPulled)))
attr title "flow specific outgoing data rate"
attr unit bps
vector 276 CampusNetwork.mainSwitch.eth[1].mac transmitting:vector ETV
attr interpolationmode sample-hold
attr recordingmode vector
attr source "count(transmissionStarted) - count(transmissionEnded)"
attr title "transmitting state"
attr type int
vector 277 CampusNetwork.mainSwitch.eth[1].mac throughput:vector ETV
attr interpolationmode linear
attr recordingmode vector
attr source throughput(transmissionEnded)
attr title throughput
attr unit bps
vector 278 CampusNetwork.mainSwitch.eth[1].mac utilization:vector ETV
attr interpolationmode linear
attr recordingmode vector
attr source "100 * utilization(count(transmissionStarted) - count(transmissionEnded))"
attr title utilization
attr unit %
vector 279 CampusNetwork.mainSwitch.eth[1].mac txPk:vector(packetBytes) ETV
attr interpolationmode none
attr recordingmode vector(packetBytes)
attr source packetSentToLower
attr title "packets transmitted, packetBytes"
vector 280 CampusNetwork.mainSwitch.eth[1].mac rxPkOk:vector(packetBytes) ETV
attr interpolationmode none
attr recordingmode vector(packetBytes)
attr source rxPkOk
attr title "packets received OK, packetBytes"
vector 281 CampusNetwork.mainSwitch.eth[1].mac passedUpPk:vector(packetBytes) ETV
attr interpolationmode none
attr recordingmode vector(packetBytes)
attr source packetSentToUpper
attr title "packets passed to higher layer, packetBytes"
vector 282 CampusNetwork.mainSwitch.eth[1].mac txPausePkUnits:vector ETV
attr interpolationmode none
attr recordingmode vector
attr title "pause units sent"
vector 283 CampusNetwork.mainSwitch.eth[1].mac rxPausePkUnits:vector ETV
attr interpolationmode none
attr recordingmode vector
attr title "pause units received"
vector 284 CampusNetwork.mainSwitch.eth[1].mac packetReceivedFromUpper:vector(packetBytes) ETV
attr interpolationmode none
attr recordingmode vector(packetBytes)
attr source packetReceivedFromUpper
attr title "packet bytes from higher layer, packetBytes"
vector 285 CampusNetwork.mainSwitch.eth[1].mac packetDropIncorrectlyReceived:vector(packetBytes) ETV
attr interpolationmode none
attr recordingmode vector(packetBytes)
attr source packetDropReasonIsIncorrectlyReceived(packetDropped)
attr title "packet drop: incorrectly received, packetBytes"
vector 286 CampusNetwork.mainSwitch.eth[1].mac packetDropInterfaceDown:vector(packetBytes) ETV
attr interpolationmode none
attr recordingmode vector(packetBytes)
attr source packetDropReasonIsInterfaceDown(packetDropped)
attr title "packet drop: interface down, packetBytes"
vector 287 CampusNetwork.mainSwitch.eth[1].mac packetDropNotAddressedToUs:vector(packetBytes) ETV
attr interpolationmode none
attr recordingmode vector(packetBytes)
attr source packetDropReasonIsNotAddressedToUs(packetDropped)
attr title "packet drop: not addressed to us, packetBytes"
vector 288 CampusNetwork.mainSwitch.eth[1] packetDropInterfaceDown:vector(packetBytes) ETV
attr interpolationmode none
attr recordingmode vector(packetBytes)
attr source packetDropReasonIsInterfaceDown(packetDropped)
attr title "packet drops: interface down, packetBytes"
vector 289 CampusNetwork.mainSwitch.eth[1] packetDropNoCarrier:vector(packetBytes) ETV
attr interpolationmode none
attr recordingmode vector(packetBytes)
attr source packetDropReasonIsNoCarrier(packetDropped)
attr title "packet drops: no carrier, packetBytes"
vector 290 CampusNetwork.mainSwitch.eth[2].queue queueLength:vector ETV
attr autoWarmupFilter false
attr interpolationmode sample-hold
attr recordingmode vector
attr source "warmup(atomic(constant0(packetPushEnded) + count(packetPushStarted) - count(packetPulled) - count(packetRemoved) - count(packetDropped)))"
attr title "queue length"
attr unit pk
vector 291 CampusNetwork.mainSwitch.eth[2].queue queueBitLength:vector ETV
attr autoWarmupFilter false
attr interpolationmode sample-hold
attr recordingmode vector
attr source "warmup(atomic(constant0(packetPushEnded) + sum(packetLength(packetPushStarted)) - sum(packetLength(packetPulled)) - sum(packetLength(packetRemoved)) - sum(packetLength(packetDropped))))"
attr title "queue bit length"
attr unit b
vector 292 CampusNetwork.mainSwitch.eth[2].queue queueingTime:vector ETV
attr interpolationmode none
attr recordingmode vector
attr source queueingTime(packetPulled)
attr title "queueing times"
attr unit s
vector 293 CampusNetwork.mainSwitch.eth[2].queue incomingPacketLengths:vector ETV
attr interpolationmode none
attr recordingmode vector
attr source packetLength(packetPushStarted)
attr title "incoming packet lengths"
attr unit b
vector 294 CampusNetwork.mainSwitch.eth[2].queue incomingDataRate:vector ETV
attr interpolationmode linear
attr recordingmode vector
attr source throughput(packetPushStarted)
attr title "incoming datarate"
attr unit bps
vector 295 CampusNetwork.mainSwitch.eth[2].queue outgoingPacketLengths:vector ETV
attr interpolationmode none
attr recordingmode vector
attr source packetLength(packetPulled)
attr title "outgoing packet lengths"
attr unit b
vector 296 CampusNetwork.mainSwitch.eth[2].queue outgoingDataRate:vector ETV
attr interpolationmode linear
attr recordingmode vector
attr source throughput(packetPulled)
attr title "outgoing datarate"
attr unit bps
vector 297 CampusNetwork.mainSwitch.eth[2].queue droppedPacketLengthsQueueOverflow:vector ETV
attr interpolationmode none
attr recordingmode vector
attr source packetLength(packetDropReasonIsQueueOverflow(packetDropped))
attr title "dropped packet lengths: queue overflow"
attr unit b
vector 298 CampusNetwork.mainSwitch.eth[2].queue flowQueueingTime:vector ETV
attr interpolationmode none
attr recordingmode vector
attr source queueingTime(demuxFlow(packetPulled))
attr title "flow queueing times"
attr unit s
vector 299 CampusNetwork.mainSwitch.eth[2].queue flowIncomingDataRate:vector ETV
attr interpolationmode linear
attr recordingmode vector
attr source throughput(flowPacketLength(demuxFlow(packetPushStarted)))
attr title "flow specific incoming data rate"
attr unit bps
vector 300 CampusNetwork.mainSwitch.eth[2].queue flowOutgoingDataRate:vector ETV
attr interpolationmode linear
attr recordingmode vector
attr source throughput(flowPacketLength(demuxFlow(packetPulled)))
attr title "flow specific outgoing data rate"
attr unit bps
vector 301 CampusNetwork.mainSwitch.eth[2].mac transmitting:vector ETV
attr interpolationmode sample-hold
attr recordingmode vector
attr source "count(transmissionStarted) - count(transmissionEnded)"
attr title "transmitting state"
attr type int
vector 302 CampusNetwork.mainSwitch.eth[2].mac throughput:vector ETV
attr interpolationmode linear
attr recordingmode vector
attr source throughput(transmissionEnded)
attr title throughput
attr unit bps
vector 303 CampusNetwork.mainSwitch.eth[2].mac utilization:vector ETV
attr interpolationmode linear
attr recordingmode vector
attr source "100 * utilization(count(transmissionStarted) - count(transmissionEnded))"
attr title utilization
attr unit %
vector 304 CampusNetwork.mainSwitch.eth[2].mac txPk:vector(packetBytes) ETV
attr interpolationmode none
attr recordingmode vector(packetBytes)
attr source packetSentToLower
attr title "packets transmitted, packetBytes"
vector 305 CampusNetwork.mainSwitch.eth[2].mac rxPkOk:vector(packetBytes) ETV
attr interpolationmode none
attr recordingmode vector(packetBytes)
attr source rxPkOk
attr title "packets received OK, packetBytes"
vector 306 CampusNetwork.mainSwitch.eth[2].mac passedUpPk:vector(packetBytes) ETV
attr interpolationmode none
attr recordingmode vector(packetBytes)
attr source packetSentToUpper
attr title "packets passed to higher layer, packetBytes"
vector 307 CampusNetwork.mainSwitch.eth[2].mac txPausePkUnits:vector ETV
attr interpolationmode none
attr recordingmode vector
attr title "pause units sent"
vector 308 CampusNetwork.mainSwitch.eth[2].mac rxPausePkUnits:vector ETV
attr interpolationmode none
attr recordingmode vector
attr title "pause units received"
[...]
2988	81918395 7838 1326006 1326006 0.1 40 400 0 128000.00000000001 128000.00000000001 16384000000.000004
2991	81926233 7821 1326006 1326006 0.1 40 400 0 0 0 0
2992	81934054 7821 1326006 1326006 0.1 40 400 0 0 0 0
2994	81941875 7826 1326006 1326006 0.1 40 400 0 144000 144000 2.0736e+10
2995	81949701 7839 1326006 1326006 0.1 40 400 0 0.14400000000000002 0.14400000000000002 0.020736000000000004
3011	81957540 7838 1326006 1326006 0.1 40 400 0 128000.00000000001 128000.00000000001 16384000000.000004
3013	81965378 7838 1326006 1326006 0.1 40 400 0 128000.00000000001 128000.00000000001 16384000000.000004
3016	81973216 7821 1326006 1326006 0.1 40 400 0 0 0 0
3017	81981037 7821 1326006 1326006 0.1 40 400 0 0 0 0
3019	81988858 7826 1326006 1326006 0.1 40 400 0 144000 144000 2.0736e+10
3020	81996684 7839 1326006 1326006 0.1 40 400 0 0.14400000000000002 0.14400000000000002 0.020736000000000004
3036	82004523 7838 1326006 1326006 0.1 40 400 0 128000.00000000001 128000.00000000001 16384000000.000004
3038	82012361 7838 1326006 1326006 0.1 40 400 0 128000.00000000001 128000.00000000001 16384000000.000004
3041	82020199 7821 1326006 1326006 0.1 40 400 0 0 0 0
3042	82028020 7821 1326006 1326006 0.1 40 400 0 0 0 0
3044	82035841 7826 1326006 1326006 0.1 40 400 0 144000 144000 2.0736e+10
3045	82043667 7839 1326006 1326006 0.1 40 400 0 0.14400000000000002 0.14400000000000002 0.020736000000000004
3061	82051506 7838 1326006 1326006 0.1 40 400 0 128000.00000000001 128000.00000000001 16384000000.000004
3063	82059344 7838 1326006 1326006 0.1 40 400 0 128000.00000000001 128000.00000000001 16384000000.000004
3066	82067182 7821 1326006 1326006 0.1 40 400 0 0 0 0
3067	82075003 7821 1326006 1326006 0.1 40 400 0 0 0 0
3069	82082824 7826 1326006 1326006 0.1 40 400 0 144000 144000 2.0736e+10
3070	82090650 7839 1326006 1326006 0.1 40 400 0 0.14400000000000002 0.14400000000000002 0.020736000000000004
3086	82098489 7838 1326006 1326006 0.1 40 400 0 128000.00000000001 128000.00000000001 16384000000.000004
3088	82106327 7838 1326006 1326006 0.1 40 400 0 128000.00000000001 128000.00000000001 16384000000.000004
3091	82114165 7821 1326006 1326006 0.1 40 400 0 0 0 0
3092	82121986 7821 1326006 1326006 0.1 40 400 0 0 0 0
3094	82129807 7826 1326006 1326006 0.1 40 400 0 144000 144000 2.0736e+10
3095	82137633 7839 1326006 1326006 0.1 40 400 0 0.14400000000000002 0.14400000000000002 0.020736000000000004
3111	82145472 7838 1326006 1326006 0.1 40 400 0 128000.00000000001 128000.00000000001 16384000000.000004
3113	82153310 7838 1326006 1326006 0.1 40 400 0 128000.00000000001 128000.00000000001 16384000000.000004
3116	82161148 7821 1326006 1326006 0.1 40 400 0 0 0 0
3117	82168969 7821 1326006 1326006 0.1 40 400 0 0 0 0
3119	82176790 7826 1326006 1326006 0.1 40 400 0 144000 144000 2.0736e+10
3120	82184616 7839 1326006 1326006 0.1 40 400 0 0.14400000000000002 0.14400000000000002 0.020736000000000004
3136	82192455 7838 1326006 1326006 0.1 40 400 0 128000.00000000001 128000.00000000001 16384000000.000004
3138	82200293 7838 1326006 1326006 0.1 40 400 0 128000.00000000001 128000.00000000001 16384000000.000004
3141	82208131 7821 1326006 1326006 0.1 40 400 0 0 0 0
3142	82215952 7821 1326006 1326006 0.1 40 400 0 0 0 0
3144	82223773 7826 1326006 1326006 0.1 40 400 0 144000 144000 2.0736e+10
3145	82231599 7839 1326006 1326006 0.1 40 400 0 0.14400000000000002 0.14400000000000002 0.020736000000000004
3161	82239438 7838 1326006 1326006 0.1 40 400 0 128000.00000000001 128000.00000000001 16384000000.000004
3163	82247276 7838 1326006 1326006 0.1 40 400 0 128000.00000000001 128000.00000000001 16384000000.000004
3166	82255114 7821 1326006 1326006 0.1 40 400 0 0 0 0
3167	82262935 7821 1326006 1326006 0.1 40 400 0 0 0 0
3169	82270756 7826 1326006 1326006 0.1 40 400 0 144000 144000 2.0736e+10
3170	82278582 7839 1326006 1326006 0.1 40 400 0 0.14400000000000002 0.14400000000000002 0.020736000000000004
3193	82286421 232 1326006 1326006 39 40 11 0 99680.00000000001 99680.00000000001 9936102400.000004
3195	82286653 232 1326006 1326006 39 40 11 0 99680.00000000001 99680.00000000001 9936102400.000004
3198	82286885 7821 1326006 1326006 0.1 40 400 0 0 0 0
3199	82294706 7821 1326006 1326006 0.1 40 400 0 0 0 0
3201	82302527 233 1326006 1326006 39 40 11 0 100320.00000000001 100320.00000000001 10064102400.000004
3202	82302760 222 1326006 1326006 39 40 11 0 0.10032 0.10032 0.010064102400000002
3224	82302982 232 1326006 1326006 39 40 11 0 96640.00000000001 96640.00000000001 9339289600.000002
3230	82303214 7821 1326006 1326006 0.1 40 400 0 0 0 0
3245	82311035 233 1326006 1326006 39 40 11 0 199360.00000000003 199360.00000000003 39744409600.000015
3247	82311268 233 1326006 1326006 39 40 11 0 199360.00000000003 199360.00000000003 39744409600.000015
3250	82311501 7821 1326006 1326006 0.1 40 400 0 0 0 0
3251	82319322 7821 1326006 1326006 0.1 40 400 0 0 0 0
3253	82327143 233 1326006 1326006 39 40 11 0 200640.00000000003 200640.00000000003 40256409600.000015
3254	82327376 222 1326006 1326006 39 40 11 0 0.20064 0.20064 0.04025640960000001
3276	82327598 233 1326006 1326006 39 40 11 0 193280.00000000003 193280.00000000003 37357158400.00001
3282	82327831 7821 1326006 1326006 0.1 40 400 0 0 0 0
3297	82335652 233 1326006 1326006 39 40 11 0 199360.00000000003 199360.00000000003 39744409600.000015
3299	82335885 233 1326006 1326006 39 40 11 0 199360.00000000003 199360.00000000003 39744409600.000015
3302	82336118 7821 1326006 1326006 0.1 40 400 0 0 0 0
3303	82343939 7821 1326006 1326006 0.1 40 400 0 0 0 0
3305	82351760 233 1326006 1326006 39 40 11 0 200640.00000000003 200640.00000000003 40256409600.000015
3306	82351993 222 1326006 1326006 39 40 11 0 0.20064 0.20064 0.04025640960000001
3328	82352215 233 1326006 1326006 39 40 11 0 193280.00000000003 193280.00000000003 37357158400.00001
3334	82352448 7821 1326006 1326006 0.1 40 400 0 0 0 0
3349	82360269 232 1326006 1326006 39 40 11 0 99680.00000000001 99680.00000000001 9936102400.000004
3351	82360501 232 1326006 1326006 39 40 11 0 99680.00000000001 99680.00000000001 9936102400.000004
3354	82360733 7821 1326006 1326006 0.1 40 400 0 0 0 0
3355	82368554 7821 1326006 1326006 0.1 40 400 0 0 0 0
3357	82376375 233 1326006 1326006 39 40 11 0 100320.00000000001 100320.00000000001 10064102400.000004
3358	82376608 222 1326006 1326006 39 40 11 0 0.10032 0.10032 0.010064102400000002
3380	82376830 232 1326006 1326006 39 40 11 0 96640.00000000001 96640.00000000001 9339289600.000002
3386	82377062 7821 1326006 1326006 0.1 40 400 0 0 0 0
3401	82384883 232 1326006 1326006 39 40 11 0 99680.00000000001 99680.00000000001 9936102400.000004
3403	82385115 232 1326006 1326006 39 40 11 0 99680.00000000001 99680.00000000001 9936102400.000004
3406	82385347 7821 1326006 1326006 0.1 40 400 0 0 0 0
3407	82393168 7821 1326006 1326006 0.1 40 400 0 0 0 0
3409	82400989 233 1326006 1326006 39 40 11 0 100320.00000000001 100320.00000000001 10064102400.000004
3410	82401222 222 1326006 1326006 39 40 11 0 0.10032 0.10032 0.010064102400000002
3432	82401444 232 1326006 1326006 39 40 11 0 96640.00000000001 96640.00000000001 9339289600.000002
3438	82401676 7821 1326006 1326006 0.1 40 400 0 0 0 0
3453	82409497 232 1326006 1326006 39 40 11 0 99680.00000000001 99680.00000000001 9936102400.000004
3455	82409729 232 1326006 1326006 39 40 11 0 99680.00000000001 99680.00000000001 9936102400.000004
3458	82409961 7821 1326006 1326006 0.1 40 400 0 0 0 0
3459	82417782 7821 1326006 1326006 0.1 40 400 0 0 0 0
3461	82425603 233 1326006 1326006 39 40 11 0 100320.00000000001 100320.00000000001 10064102400.000004
3462	82425836 222 1326006 1326006 39 40 11 0 0.10032 0.10032 0.010064102400000002
3484	82426058 232 1326006 1326006 39 40 11 0 96640.00000000001 96640.00000000001 9339289600.000002
3490	82426290 7821 1326006 1326006 0.1 40 400 0 0 0 0
3505	82434111 233 1326006 1326006 39 40 11 0 199360.00000000003 199360.00000000003 39744409600.000015
3507	82434344 233 1326006 1326006 39 40 11 0 199360.00000000003 199360.00000000003 39744409600.000015
3510	82434577 7821 1326006 1326006 0.1 40 400 0 0 0 0
3511	82442398 7821 1326006 1326006 0.1 40 400 0 0 0 0
3513	82450219 233 1326006 1326006 39 40 11 0 200640.00000000003 200640.00000000003 40256409600.000015
3514	82450452 222 1326006 1326006 39 40 11 0 0.20064 0.20064 0.04025640960000001
3536	82450674 233 1326006 1326006 39 40 11 0 193280.00000000003 193280.00000000003 37357158400.00001
3542	82450907 7821 1326006 1326006 0.1 40 400 0 0 0 0
3557	82458728 233 1326006 1326006 39 40 11 0 199360.00000000003 199360.00000000003 39744409600.000015
3559	82458961 233 1326006 1326006 39 40 11 0 199360.00000000003 199360.00000000003 39744409600.000015
3562	82459194 7821 1326006 1326006 0.1 40 400 0 0 0 0
3563	82467015 7821 1326006 1326006 0.1 40 400 0 0 0 0
3565	82474836 233 1326006 1326006 39 40 11 0 200640.00000000003 200640.00000000003 40256409600.000015
3566	82475069 222 1326006 1326006 39 40 11 0 0.20064 0.20064 0.04025640960000001
3588	82475291 233 1326006 1326006 39 40 11 0 193280.00000000003 193280.00000000003 37357158400.00001
3594	82475524 7821 1326006 1326006 0.1 40 400 0 0 0 0
3609	82483345 253 1326006 1326006 38.9 40 12 0 199360.00000000003 199360.00000000003 39744409600.000015
3611	82483598 253 1326006 1326006 38.9 40 12 0 199360.00000000003 199360.00000000003 39744409600.000015
3614	82483851 7821 1326006 1326006 0.1 40 400 0 0 0 0
3615	82491672 7821 1326006 1326006 0.1 40 400 0 0 0 0
3617	82499493 253 1326006 1326006 38.9 40 12 0 200640.00000000003 200640.00000000003 40256409600.000015
3618	82499746 242 1326006 1326006 38.9 40 12 0 0.20064 0.20064 0.04025640960000001
3640	82499988 253 1326006 1326006 38.9 40 12 0 193280.00000000003 193280.00000000003 37357158400.00001
3646	82500241 7821 1326006 1326006 0.1 40 400 0 0 0 0
3661	82508062 232 1326006 1326006 39 40 11 0 99680.00000000001 99680.00000000001 9936102400.000004
3663	82508294 232 1326006 1326006 39 40 11 0 99680.00000000001 99680.00000000001 9936102400.000004
3666	82508526 7821 1326006 1326006 0.1 40 400 0 0 0 0
3667	82516347 7821 1326006 1326006 0.1 40 400 0 0 0 0
3669	82524168 233 1326006 1326006 39 40 11 0 100320.00000000001 100320.00000000001 10064102400.000004
3670	82524401 222 1326006 1326006 39 40 11 0 0.10032 0.10032 0.010064102400000002
3692	82524623 232 1326006 1326006 39 40 11 0 96640.00000000001 96640.00000000001 9339289600.000002
3698	82524855 7821 1326006 1326006 0.1 40 400 0 0 0 0
3713	82532676 233 1326006 1326006 39 40 11 0 199360.00000000003 199360.00000000003 39744409600.000015
3715	82532909 233 1326006 1326006 39 40 11 0 199360.00000000003 199360.00000000003 39744409600.000015
3718	82533142 7821 1326006 1326006 0.1 40 400 0 0 0 0
3719	82540963 7821 1326006 1326006 0.1 40 400 0 0 0 0
3721	82548784 233 1326006 1326006 39 40 11 0 200640.00000000003 200640.00000000003 40256409600.000015
3722	82549017 222 1326006 1326006 39 40 11 0 0.20064 0.20064 0.04025640960000001
3744	82549239 233 1326006 1326006 39 40 11 0 193280.00000000003 193280.00000000003 37357158400.00001
3750	82549472 7821 1326006 1326006 0.1 40 400 0 0 0 0
3765	82557293 233 1326006 1326006 39 40 11 0 199360.00000000003 199360.00000000003 39744409600.000015
3767	82557526 233 1326006 1326006 39 40 11 0 199360.00000000003 199360.00000000003 39744409600.000015
3770	82557759 7821 1326006 1326006 0.1 40 400 0 0 0 0
3771	82565580 7821 1326006 1326006 0.1 40 400 0 0 0 0
3773	82573401 233 1326006 1326006 39 40 11 0 200640.00000000003 200640.00000000003 40256409600.000015
3774	82573634 222 1326006 1326006 39 40 11 0 0.20064 0.20064 0.04025640960000001
3796	82573856 233 1326006 1326006 39 40 11 0 193280.00000000003 193280.00000000003 37357158400.00001
3802	82574089 7821 1326006 1326006 0.1 40 400 0 0 0 0
3817	82581910 233 1326006 1326006 39 40 11 0 199360.00000000003 199360.00000000003 39744409600.000015
3819	82582143 233 1326006 1326006 39 40 11 0 199360.00000000003 199360.00000000003 39744409600.000015
3822	82582376 7821 1326006 1326006 0.1 40 400 0 0 0 0
3823	82590197 7821 1326006 1326006 0.1 40 400 0 0 0 0
3825	82598018 233 1326006 1326006 39 40 11 0 200640.00000000003 200640.00000000003 40256409600.000015
3826	82598251 222 1326006 1326006 39 40 11 0 0.20064 0.20064 0.04025640960000001
3848	82598473 233 1326006 1326006 39 40 11 0 193280.00000000003 193280.00000000003 37357158400.00001
3854	82598706 7821 1326006 1326006 0.1 40 400 0 0 0 0
3869	82606527 232 1326006 1326006 39 40 11 0 99680.00000000001 99680.00000000001 9936102400.000004
3871	82606759 232 1326006 1326006 39 40 11 0 99680.00000000001 99680.00000000001 9936102400.000004
3874	82606991 7821 1326006 1326006 0.1 40 400 0 0 0 0
3875	82614812 7821 1326006 1326006 0.1 40 400 0 0 0 0
3877	82622633 233 1326006 1326006 39 40 11 0 100320.00000000001 100320.00000000001 10064102400.000004
3878	82622866 222 1326006 1326006 39 40 11 0 0.10032 0.10032 0.010064102400000002
3900	82623088 232 1326006 1326006 39 40 11 0 96640.00000000001 96640.00000000001 9339289600.000002
3906	82623320 7821 1326006 1326006 0.1 40 400 0 0 0 0
3921	82631141 233 1326006 1326006 39 40 11 0 199360.00000000003 199360.00000000003 39744409600.000015
3923	82631374 233 1326006 1326006 39 40 11 0 199360.00000000003 199360.00000000003 39744409600.000015
3926	82631607 7821 1326006 1326006 0.1 40 400 0 0 0 0
3927	82639428 7821 1326006 1326006 0.1 40 400 0 0 0 0
3929	82647249 233 1326006 1326006 39 40 11 0 200640.00000000003 200640.00000000003 40256409600.000015
3930	82647482 222 1326006 1326006 39 40 11 0 0.20064 0.20064 0.04025640960000001
3952	82647704 233 1326006 1326006 39 40 11 0 193280.00000000003 193280.00000000003 37357158400.00001
3958	82647937 7821 1326006 1326006 0.1 40 400 0 0 0 0
3973	82655758 232 1326006 1326006 39 40 11 0 99680.00000000001 99680.00000000001 9936102400.000004
3975	82655990 232 1326006 1326006 39 40 11 0 99680.00000000001 99680.00000000001 9936102400.000004
3978	82656222 7821 1326006 1326006 0.1 40 400 0 0 0 0
3979	82664043 7821 1326006 1326006 0.1 40 400 0 0 0 0
3981	82671864 233 1326006 1326006 39 40 11 0 100320.00000000001 100320.00000000001 10064102400.000004
3982	82672097 222 1326006 1326006 39 40 11 0 0.10032 0.10032 0.010064102400000002
4004	82672319 232 1326006 1326006 39 40 11 0 96640.00000000001 96640.00000000001 9339289600.000002
4010	82672551 7821 1326006 1326006 0.1 40 400 0 0 0 0
4025	82680372 252 1326006 1326006 38.9 40 12 0 99680.00000000001 99680.00000000001 9936102400.000004
4027	82680624 252 1326006 1326006 38.9 40 12 0 99680.00000000001 99680.00000000001 9936102400.000004
4030	82680876 7821 1326006 1326006 0.1 40 400 0 0 0 0
4031	82688697 7821 1326006 1326006 0.1 40 400 0 0 0 0
4033	82696518 253 1326006 1326006 38.9 40 12 0 100320.00000000001 100320.00000000001 10064102400.000004
4034	82696771 242 1326006 1326006 38.9 40 12 0 0.10032 0.10032 0.010064102400000002
4056	82697013 252 1326006 1326006 38.9 40 12 0 96640.00000000001 96640.00000000001 9339289600.000002
4062	82697265 7821 1326006 1326006 0.1 40 400 0 0 0 0
4077	82705086 232 1326006 1326006 39 40 11 0 99680.00000000001 99680.00000000001 9936102400.000004
4079	82705318 232 1326006 1326006 39 40 11 0 99680.00000000001 99680.00000000001 9936102400.000004
4082	82705550 7821 1326006 1326006 0.1 40 400 0 0 0 0
4083	82713371 7821 1326006 1326006 0.1 40 400 0 0 0 0
4085	82721192 233 1326006 1326006 39 40 11 0 100320.00000000001 100320.00000000001 10064102400.000004
4086	82721425 222 1326006 1326006 39 40 11 0 0.10032 0.10032 0.010064102400000002
4108	82721647 232 1326006 1326006 39 40 11 0 96640.00000000001 96640.00000000001 9339289600.000002
4114	82721879 7821 1326006 1326006 0.1 40 400 0 0 0 0
4129	82729700 233 1326006 1326006 39 40 11 0 199360.00000000003 199360.00000000003 39744409600.000015
4131	82729933 233 1326006 1326006 39 40 11 0 199360.00000000003 199360.00000000003 39744409600.000015
4134	82730166 7821 1326006 1326006 0.1 40 400 0 0 0 0
4135	82737987 7821 1326006 1326006 0.1 40 400 0 0 0 0
4137	82745808 233 1326006 1326006 39 40 11 0 200640.00000000003 200640.00000000003 40256409600.000015
4138	82746041 222 1326006 1326006 39 40 11 0 0.20064 0.20064 0.04025640960000001
4160	82746263 233 1326006 1326006 39 40 11 0 193280.00000000003 193280.00000000003 37357158400.00001
4166	82746496 7821 1326006 1326006 0.1 40 400 0 0 0 0
4181	82754317 252 1326006 1326006 38.9 40 12 0 99680.00000000001 99680.00000000001 9936102400.000004
4183	82754569 252 1326006 1326006 38.9 40 12 0 99680.00000000001 99680.00000000001 9936102400.000004
4186	82754821 7821 1326006 1326006 0.1 40 400 0 0 0 0
4187	82762642 7821 1326006 1326006 0.1 40 400 0 0 0 0
4189	82770463 253 1326006 1326006 38.9 40 12 0 100320.00000000001 100320.00000000001 10064102400.000004
4190	82770716 242 1326006 1326006 38.9 40 12 0 0.10032 0.10032 0.010064102400000002
4212	82770958 252 1326006 1326006 38.9 40 12 0 96640.00000000001 96640.00000000001 9339289600.000002
4218	82771210 7821 1326006 1326006 0.1 40 400 0 0 0 0
4233	82779031 221 1326006 1326006 39 40 11 0 299040 299040 89424921600
4235	82779252 221 1326006 1326006 39 40 11 0 299040 299040 89424921600
4238	82779473 7821 1326006 1326006 0.1 40 400 0 0 0 0
4239	82787294 7821 1326006 1326006 0.1 40 400 0 0 0 0
4241	82795115 221 1326006 1326006 39 40 11 0 300960 300960 90576921600
4242	82795336 222 1326006 1326006 39 40 11 0 0.30096 0.30096 0.0905769216
4264	82795558 221 1326006 1326006 39 40 11 0 289920 289920 84053606400
4270	82795779 7821 1326006 1326006 0.1 40 400 0 0 0 0
4285	82803600 233 1326006 1326006 39 40 11 0 199360.00000000003 199360.00000000003 39744409600.000015
4287	82803833 233 1326006 1326006 39 40 11 0 199360.00000000003 199360.00000000003 39744409600.000015
4290	82804066 7821 1326006 1326006 0.1 40 400 0 0 0 0
4291	82811887 7821 1326006 1326006 0.1 40 400 0 0 0 0
4293	82819708 233 1326006 1326006 39 40 11 0 200640.00000000003 200640.00000000003 40256409600.000015
4294	82819941 222 1326006 1326006 39 40 11 0 0.20064 0.20064 0.04025640960000001
4316	82820163 233 1326006 1326006 39 40 11 0 193280.00000000003 193280.00000000003 37357158400.00001
4322	82820396 7821 1326006 1326006 0.1 40 400 0 0 0 0
4337	82828217 252 1326006 1326006 38.9 40 12 0 99680.00000000001 99680.00000000001 9936102400.000004
4339	82828469 252 1326006 1326006 38.9 40 12 0 99680.00000000001 99680.00000000001 9936102400.000004
4342	82828721 7821 1326006 1326006 0.1 40 400 0 0 0 0
4343	82836542 7821 1326006 1326006 0.1 40 400 0 0 0 0
4345	82844363 253 1326006 1326006 38.9 40 12 0 100320.00000000001 100320.00000000001 10064102400.000004
4346	82844616 242 1326006 1326006 38.9 40 12 0 0.10032 0.10032 0.010064102400000002
4368	82844858 252 1326006 1326006 38.9 40 12 0 96640.00000000001 96640.00000000001 9339289600.000002
4374	82845110 7821 1326006 1326006 0.1 40 400 0 0 0 0
4389	82852931 233 1326006 1326006 39 40 11 0 199360.00000000003 199360.00000000003 39744409600.000015
4391	82853164 233 1326006 1326006 39 40 11 0 199360.00000000003 199360.00000000003 39744409600.000015
4394	82853397 7821 1326006 1326006 0.1 40 400 0 0 0 0
4395	82861218 7821 1326006 1326006 0.1 40 400 0 0 0 0
4397	82869039 233 1326006 1326006 39 40 11 0 200640.00000000003 200640.00000000003 40256409600.000015
4398	82869272 222 1326006 1326006 39 40 11 0 0.20064 0.20064 0.04025640960000001
4420	82869494 233 1326006 1326006 39 40 11 0 193280.00000000003 193280.00000000003 37357158400.00001
4426	82869727 7821 1326006 1326006 0.1 40 400 0 0 0 0
4441	82877548 233 1326006 1326006 39 40 11 0 199360.00000000003 199360.00000000003 39744409600.000015
4443	82877781 233 1326006 1326006 39 40 11 0 199360.00000000003 199360.00000000003 39744409600.000015
4446	82878014 7821 1326006 1326006 0.1 40 400 0 0 0 0
4447	82885835 7821 1326006 1326006 0.1 40 400 0 0 0 0
4449	82893656 233 1326006 1326006 39 40 11 0 200640.00000000003 200640.00000000003 40256409600.000015
4450	82893889 222 1326006 1326006 39 40 11 0 0.20064 0.20064 0.04025640960000001
4472	82894111 233 1326006 1326006 39 40 11 0 193280.00000000003 193280.00000000003 37357158400.00001
4478	82894344 7821 1326006 1326006 0.1 40 400 0 0 0 0

